* XSpice netlist created from SPICE and liberty sources by spi2xspice.py
*SPICE netlist created from BLIF module ALU_64bit by blif2BSpice
.subckt ALU_64bit a_vdd a_gnd a_clk a_reset a_operand_A_0_ a_operand_A_1_ a_operand_A_2_ a_operand_A_3_ a_operand_A_4_ a_operand_A_5_ a_operand_A_6_ a_operand_A_7_ a_operand_A_8_ a_operand_A_9_ a_operand_A_10_ a_operand_A_11_ a_operand_A_12_ a_operand_A_13_ a_operand_A_14_ a_operand_A_15_ a_operand_A_16_ a_operand_A_17_ a_operand_A_18_ a_operand_A_19_ a_operand_A_20_ a_operand_A_21_ a_operand_A_22_ a_operand_A_23_ a_operand_A_24_ a_operand_A_25_ a_operand_A_26_ a_operand_A_27_ a_operand_A_28_ a_operand_A_29_ a_operand_A_30_ a_operand_A_31_ a_operand_A_32_ a_operand_A_33_ a_operand_A_34_ a_operand_A_35_ a_operand_A_36_ a_operand_A_37_ a_operand_A_38_ a_operand_A_39_ a_operand_A_40_ a_operand_A_41_ a_operand_A_42_ a_operand_A_43_ a_operand_A_44_ a_operand_A_45_ a_operand_A_46_ a_operand_A_47_ a_operand_A_48_ a_operand_A_49_ a_operand_A_50_ a_operand_A_51_ a_operand_A_52_ a_operand_A_53_ a_operand_A_54_ a_operand_A_55_ a_operand_A_56_ a_operand_A_57_ a_operand_A_58_ a_operand_A_59_ a_operand_A_60_ a_operand_A_61_ a_operand_A_62_ a_operand_A_63_ a_operand_B_0_ a_operand_B_1_ a_operand_B_2_ a_operand_B_3_ a_operand_B_4_ a_operand_B_5_ a_operand_B_6_ a_operand_B_7_ a_operand_B_8_ a_operand_B_9_ a_operand_B_10_ a_operand_B_11_ a_operand_B_12_ a_operand_B_13_ a_operand_B_14_ a_operand_B_15_ a_operand_B_16_ a_operand_B_17_ a_operand_B_18_ a_operand_B_19_ a_operand_B_20_ a_operand_B_21_ a_operand_B_22_ a_operand_B_23_ a_operand_B_24_ a_operand_B_25_ a_operand_B_26_ a_operand_B_27_ a_operand_B_28_ a_operand_B_29_ a_operand_B_30_ a_operand_B_31_ a_operand_B_32_ a_operand_B_33_ a_operand_B_34_ a_operand_B_35_ a_operand_B_36_ a_operand_B_37_ a_operand_B_38_ a_operand_B_39_ a_operand_B_40_ a_operand_B_41_ a_operand_B_42_ a_operand_B_43_ a_operand_B_44_ a_operand_B_45_ a_operand_B_46_ a_operand_B_47_ a_operand_B_48_ a_operand_B_49_ a_operand_B_50_ a_operand_B_51_ a_operand_B_52_ a_operand_B_53_ a_operand_B_54_ a_operand_B_55_ a_operand_B_56_ a_operand_B_57_ a_operand_B_58_ a_operand_B_59_ a_operand_B_60_ a_operand_B_61_ a_operand_B_62_ a_operand_B_63_ a_alu_op_0_ a_alu_op_1_ a_alu_op_2_ a_alu_op_3_ a_result_0_ a_result_1_ a_result_2_ a_result_3_ a_result_4_ a_result_5_ a_result_6_ a_result_7_ a_result_8_ a_result_9_ a_result_10_ a_result_11_ a_result_12_ a_result_13_ a_result_14_ a_result_15_ a_result_16_ a_result_17_ a_result_18_ a_result_19_ a_result_20_ a_result_21_ a_result_22_ a_result_23_ a_result_24_ a_result_25_ a_result_26_ a_result_27_ a_result_28_ a_result_29_ a_result_30_ a_result_31_ a_result_32_ a_result_33_ a_result_34_ a_result_35_ a_result_36_ a_result_37_ a_result_38_ a_result_39_ a_result_40_ a_result_41_ a_result_42_ a_result_43_ a_result_44_ a_result_45_ a_result_46_ a_result_47_ a_result_48_ a_result_49_ a_result_50_ a_result_51_ a_result_52_ a_result_53_ a_result_54_ a_result_55_ a_result_56_ a_result_57_ a_result_58_ a_result_59_ a_result_60_ a_result_61_ a_result_62_ a_result_63_ a_zero_flag a_carry_flag a_overflow_flag
ABUFX4_1 [_3209_] _3209__bF$buf5 d_lut_BUFX4
ABUFX4_2 [_3209_] _3209__bF$buf4 d_lut_BUFX4
ABUFX4_3 [_3209_] _3209__bF$buf3 d_lut_BUFX4
ABUFX4_4 [_3209_] _3209__bF$buf2 d_lut_BUFX4
ABUFX4_5 [_3209_] _3209__bF$buf1 d_lut_BUFX4
ABUFX4_6 [_3209_] _3209__bF$buf0 d_lut_BUFX4
ABUFX4_7 [_3370_] _3370__bF$buf3 d_lut_BUFX4
ABUFX4_8 [_3370_] _3370__bF$buf2 d_lut_BUFX4
ABUFX4_9 [_3370_] _3370__bF$buf1 d_lut_BUFX4
ABUFX4_10 [_3370_] _3370__bF$buf0 d_lut_BUFX4
ACLKBUF1_1 [clk] clk_bF$buf7 d_lut_CLKBUF1
ACLKBUF1_2 [clk] clk_bF$buf6 d_lut_CLKBUF1
ACLKBUF1_3 [clk] clk_bF$buf5 d_lut_CLKBUF1
ACLKBUF1_4 [clk] clk_bF$buf4 d_lut_CLKBUF1
ACLKBUF1_5 [clk] clk_bF$buf3 d_lut_CLKBUF1
ACLKBUF1_6 [clk] clk_bF$buf2 d_lut_CLKBUF1
ACLKBUF1_7 [clk] clk_bF$buf1 d_lut_CLKBUF1
ACLKBUF1_8 [clk] clk_bF$buf0 d_lut_CLKBUF1
ABUFX4_11 [_661_] _661__bF$buf4 d_lut_BUFX4
ABUFX4_12 [_661_] _661__bF$buf3 d_lut_BUFX4
ABUFX4_13 [_661_] _661__bF$buf2 d_lut_BUFX4
ABUFX4_14 [_661_] _661__bF$buf1 d_lut_BUFX4
ABUFX4_15 [_661_] _661__bF$buf0 d_lut_BUFX4
ABUFX4_16 [_2535_] _2535__bF$buf10 d_lut_BUFX4
ABUFX4_17 [_2535_] _2535__bF$buf9 d_lut_BUFX4
ABUFX4_18 [_2535_] _2535__bF$buf8 d_lut_BUFX4
ABUFX4_19 [_2535_] _2535__bF$buf7 d_lut_BUFX4
ABUFX4_20 [_2535_] _2535__bF$buf6 d_lut_BUFX4
ABUFX4_21 [_2535_] _2535__bF$buf5 d_lut_BUFX4
ABUFX4_22 [_2535_] _2535__bF$buf4 d_lut_BUFX4
ABUFX4_23 [_2535_] _2535__bF$buf3 d_lut_BUFX4
ABUFX4_24 [_2535_] _2535__bF$buf2 d_lut_BUFX4
ABUFX4_25 [_2535_] _2535__bF$buf1 d_lut_BUFX4
ABUFX4_26 [_2535_] _2535__bF$buf0 d_lut_BUFX4
ABUFX4_27 [_2914_] _2914__bF$buf5 d_lut_BUFX4
ABUFX4_28 [_2914_] _2914__bF$buf4 d_lut_BUFX4
ABUFX4_29 [_2914_] _2914__bF$buf3 d_lut_BUFX4
ABUFX4_30 [_2914_] _2914__bF$buf2 d_lut_BUFX4
ABUFX4_31 [_2914_] _2914__bF$buf1 d_lut_BUFX4
ABUFX4_32 [_2914_] _2914__bF$buf0 d_lut_BUFX4
ABUFX4_33 [operand_B_3_] operand_B_3_bF$buf9_ d_lut_BUFX4
ABUFX4_34 [operand_B_3_] operand_B_3_bF$buf8_ d_lut_BUFX4
ABUFX4_35 [operand_B_3_] operand_B_3_bF$buf7_ d_lut_BUFX4
ABUFX4_36 [operand_B_3_] operand_B_3_bF$buf6_ d_lut_BUFX4
ABUFX4_37 [operand_B_3_] operand_B_3_bF$buf5_ d_lut_BUFX4
ABUFX4_38 [operand_B_3_] operand_B_3_bF$buf4_ d_lut_BUFX4
ABUFX4_39 [operand_B_3_] operand_B_3_bF$buf3_ d_lut_BUFX4
ABUFX4_40 [operand_B_3_] operand_B_3_bF$buf2_ d_lut_BUFX4
ABUFX4_41 [operand_B_3_] operand_B_3_bF$buf1_ d_lut_BUFX4
ABUFX4_42 [operand_B_3_] operand_B_3_bF$buf0_ d_lut_BUFX4
ABUFX4_43 [operand_B_0_] operand_B_0_bF$buf12_ d_lut_BUFX4
ABUFX4_44 [operand_B_0_] operand_B_0_bF$buf11_ d_lut_BUFX4
ABUFX4_45 [operand_B_0_] operand_B_0_bF$buf10_ d_lut_BUFX4
ABUFX4_46 [operand_B_0_] operand_B_0_bF$buf9_ d_lut_BUFX4
ABUFX4_47 [operand_B_0_] operand_B_0_bF$buf8_ d_lut_BUFX4
ABUFX4_48 [operand_B_0_] operand_B_0_bF$buf7_ d_lut_BUFX4
ABUFX4_49 [operand_B_0_] operand_B_0_bF$buf6_ d_lut_BUFX4
ABUFX4_50 [operand_B_0_] operand_B_0_bF$buf5_ d_lut_BUFX4
ABUFX4_51 [operand_B_0_] operand_B_0_bF$buf4_ d_lut_BUFX4
ABUFX4_52 [operand_B_0_] operand_B_0_bF$buf3_ d_lut_BUFX4
ABUFX4_53 [operand_B_0_] operand_B_0_bF$buf2_ d_lut_BUFX4
ABUFX4_54 [operand_B_0_] operand_B_0_bF$buf1_ d_lut_BUFX4
ABUFX4_55 [operand_B_0_] operand_B_0_bF$buf0_ d_lut_BUFX4
ABUFX4_56 [_3214_] _3214__bF$buf4 d_lut_BUFX4
ABUFX4_57 [_3214_] _3214__bF$buf3 d_lut_BUFX4
ABUFX4_58 [_3214_] _3214__bF$buf2 d_lut_BUFX4
ABUFX4_59 [_3214_] _3214__bF$buf1 d_lut_BUFX4
ABUFX4_60 [_3214_] _3214__bF$buf0 d_lut_BUFX4
ABUFX4_61 [_264_] _264__bF$buf4 d_lut_BUFX4
ABUFX4_62 [_264_] _264__bF$buf3 d_lut_BUFX4
ABUFX4_63 [_264_] _264__bF$buf2 d_lut_BUFX4
ABUFX4_64 [_264_] _264__bF$buf1 d_lut_BUFX4
ABUFX4_65 [_264_] _264__bF$buf0 d_lut_BUFX4
ABUFX4_66 [_2461_] _2461__bF$buf10 d_lut_BUFX4
ABUFX4_67 [_2461_] _2461__bF$buf9 d_lut_BUFX4
ABUFX4_68 [_2461_] _2461__bF$buf8 d_lut_BUFX4
ABUFX4_69 [_2461_] _2461__bF$buf7 d_lut_BUFX4
ABUFX4_70 [_2461_] _2461__bF$buf6 d_lut_BUFX4
ABUFX4_71 [_2461_] _2461__bF$buf5 d_lut_BUFX4
ABUFX4_72 [_2461_] _2461__bF$buf4 d_lut_BUFX4
ABUFX4_73 [_2461_] _2461__bF$buf3 d_lut_BUFX4
ABUFX4_74 [_2461_] _2461__bF$buf2 d_lut_BUFX4
ABUFX4_75 [_2461_] _2461__bF$buf1 d_lut_BUFX4
ABUFX4_76 [_2461_] _2461__bF$buf0 d_lut_BUFX4
ABUFX4_77 [_2784_] _2784__bF$buf6 d_lut_BUFX4
ABUFX4_78 [_2784_] _2784__bF$buf5 d_lut_BUFX4
ABUFX4_79 [_2784_] _2784__bF$buf4 d_lut_BUFX4
ABUFX4_80 [_2784_] _2784__bF$buf3 d_lut_BUFX4
ABUFX4_81 [_2784_] _2784__bF$buf2 d_lut_BUFX4
ABUFX4_82 [_2784_] _2784__bF$buf1 d_lut_BUFX4
ABUFX4_83 [_2784_] _2784__bF$buf0 d_lut_BUFX4
ABUFX4_84 [_158_] _158__bF$buf3 d_lut_BUFX4
ABUFX4_85 [_158_] _158__bF$buf2 d_lut_BUFX4
ABUFX4_86 [_158_] _158__bF$buf1 d_lut_BUFX4
ABUFX4_87 [_158_] _158__bF$buf0 d_lut_BUFX4
ABUFX4_88 [_3181_] _3181__bF$buf3 d_lut_BUFX4
ABUFX4_89 [_3181_] _3181__bF$buf2 d_lut_BUFX4
ABUFX4_90 [_3181_] _3181__bF$buf1 d_lut_BUFX4
ABUFX4_91 [_3181_] _3181__bF$buf0 d_lut_BUFX4
ABUFX4_92 [_3231_] _3231__bF$buf4 d_lut_BUFX4
ABUFX4_93 [_3231_] _3231__bF$buf3 d_lut_BUFX4
ABUFX4_94 [_3231_] _3231__bF$buf2 d_lut_BUFX4
ABUFX4_95 [_3231_] _3231__bF$buf1 d_lut_BUFX4
ABUFX4_96 [_3231_] _3231__bF$buf0 d_lut_BUFX4
ABUFX4_97 [enable_clk] enable_clk_bF$buf7 d_lut_BUFX4
ABUFX4_98 [enable_clk] enable_clk_bF$buf6 d_lut_BUFX4
ABUFX4_99 [enable_clk] enable_clk_bF$buf5 d_lut_BUFX4
ABUFX4_100 [enable_clk] enable_clk_bF$buf4 d_lut_BUFX4
ABUFX4_101 [enable_clk] enable_clk_bF$buf3 d_lut_BUFX4
ABUFX4_102 [enable_clk] enable_clk_bF$buf2 d_lut_BUFX4
ABUFX4_103 [enable_clk] enable_clk_bF$buf1 d_lut_BUFX4
ABUFX4_104 [enable_clk] enable_clk_bF$buf0 d_lut_BUFX4
ABUFX4_105 [_2913_] _2913__bF$buf3 d_lut_BUFX4
ABUFX4_106 [_2913_] _2913__bF$buf2 d_lut_BUFX4
ABUFX4_107 [_2913_] _2913__bF$buf1 d_lut_BUFX4
ABUFX4_108 [_2913_] _2913__bF$buf0 d_lut_BUFX4
ABUFX4_109 [operand_B_5_] operand_B_5_bF$buf7_ d_lut_BUFX4
ABUFX4_110 [operand_B_5_] operand_B_5_bF$buf6_ d_lut_BUFX4
ABUFX4_111 [operand_B_5_] operand_B_5_bF$buf5_ d_lut_BUFX4
ABUFX4_112 [operand_B_5_] operand_B_5_bF$buf4_ d_lut_BUFX4
ABUFX4_113 [operand_B_5_] operand_B_5_bF$buf3_ d_lut_BUFX4
ABUFX4_114 [operand_B_5_] operand_B_5_bF$buf2_ d_lut_BUFX4
ABUFX4_115 [operand_B_5_] operand_B_5_bF$buf1_ d_lut_BUFX4
ABUFX4_116 [operand_B_5_] operand_B_5_bF$buf0_ d_lut_BUFX4
ABUFX4_117 [_2566_] _2566__bF$buf10 d_lut_BUFX4
ABUFX4_118 [_2566_] _2566__bF$buf9 d_lut_BUFX4
ABUFX4_119 [_2566_] _2566__bF$buf8 d_lut_BUFX4
ABUFX4_120 [_2566_] _2566__bF$buf7 d_lut_BUFX4
ABUFX4_121 [_2566_] _2566__bF$buf6 d_lut_BUFX4
ABUFX4_122 [_2566_] _2566__bF$buf5 d_lut_BUFX4
ABUFX4_123 [_2566_] _2566__bF$buf4 d_lut_BUFX4
ABUFX4_124 [_2566_] _2566__bF$buf3 d_lut_BUFX4
ABUFX4_125 [_2566_] _2566__bF$buf2 d_lut_BUFX4
ABUFX4_126 [_2566_] _2566__bF$buf1 d_lut_BUFX4
ABUFX4_127 [_2566_] _2566__bF$buf0 d_lut_BUFX4
ABUFX4_128 [operand_B_2_] operand_B_2_bF$buf9_ d_lut_BUFX4
ABUFX4_129 [operand_B_2_] operand_B_2_bF$buf8_ d_lut_BUFX4
ABUFX4_130 [operand_B_2_] operand_B_2_bF$buf7_ d_lut_BUFX4
ABUFX4_131 [operand_B_2_] operand_B_2_bF$buf6_ d_lut_BUFX4
ABUFX4_132 [operand_B_2_] operand_B_2_bF$buf5_ d_lut_BUFX4
ABUFX4_133 [operand_B_2_] operand_B_2_bF$buf4_ d_lut_BUFX4
ABUFX4_134 [operand_B_2_] operand_B_2_bF$buf3_ d_lut_BUFX4
ABUFX4_135 [operand_B_2_] operand_B_2_bF$buf2_ d_lut_BUFX4
ABUFX4_136 [operand_B_2_] operand_B_2_bF$buf1_ d_lut_BUFX4
ABUFX4_137 [operand_B_2_] operand_B_2_bF$buf0_ d_lut_BUFX4
ABUFX4_138 [_3025_] _3025__bF$buf5 d_lut_BUFX4
ABUFX4_139 [_3025_] _3025__bF$buf4 d_lut_BUFX4
ABUFX4_140 [_3025_] _3025__bF$buf3 d_lut_BUFX4
ABUFX4_141 [_3025_] _3025__bF$buf2 d_lut_BUFX4
ABUFX4_142 [_3025_] _3025__bF$buf1 d_lut_BUFX4
ABUFX4_143 [_3025_] _3025__bF$buf0 d_lut_BUFX4
ABUFX4_144 [_169_] _169__bF$buf3 d_lut_BUFX4
ABUFX4_145 [_169_] _169__bF$buf2 d_lut_BUFX4
ABUFX4_146 [_169_] _169__bF$buf1 d_lut_BUFX4
ABUFX4_147 [_169_] _169__bF$buf0 d_lut_BUFX4
ABUFX4_148 [_3213_] _3213__bF$buf5 d_lut_BUFX4
ABUFX4_149 [_3213_] _3213__bF$buf4 d_lut_BUFX4
ABUFX4_150 [_3213_] _3213__bF$buf3 d_lut_BUFX4
ABUFX4_151 [_3213_] _3213__bF$buf2 d_lut_BUFX4
ABUFX4_152 [_3213_] _3213__bF$buf1 d_lut_BUFX4
ABUFX4_153 [_3213_] _3213__bF$buf0 d_lut_BUFX4
ABUFX4_154 [_3383_] _3383__bF$buf4 d_lut_BUFX4
ABUFX4_155 [_3383_] _3383__bF$buf3 d_lut_BUFX4
ABUFX4_156 [_3383_] _3383__bF$buf2 d_lut_BUFX4
ABUFX4_157 [_3383_] _3383__bF$buf1 d_lut_BUFX4
ABUFX4_158 [_3383_] _3383__bF$buf0 d_lut_BUFX4
ABUFX4_159 [_2786_] _2786__bF$buf9 d_lut_BUFX4
ABUFX4_160 [_2786_] _2786__bF$buf8 d_lut_BUFX4
ABUFX4_161 [_2786_] _2786__bF$buf7 d_lut_BUFX4
ABUFX4_162 [_2786_] _2786__bF$buf6 d_lut_BUFX4
ABUFX4_163 [_2786_] _2786__bF$buf5 d_lut_BUFX4
ABUFX4_164 [_2786_] _2786__bF$buf4 d_lut_BUFX4
ABUFX4_165 [_2786_] _2786__bF$buf3 d_lut_BUFX4
ABUFX4_166 [_2786_] _2786__bF$buf2 d_lut_BUFX4
ABUFX4_167 [_2786_] _2786__bF$buf1 d_lut_BUFX4
ABUFX4_168 [_2786_] _2786__bF$buf0 d_lut_BUFX4
ABUFX4_169 [_3204_] _3204__bF$buf3 d_lut_BUFX4
ABUFX4_170 [_3204_] _3204__bF$buf2 d_lut_BUFX4
ABUFX4_171 [_3204_] _3204__bF$buf1 d_lut_BUFX4
ABUFX4_172 [_3204_] _3204__bF$buf0 d_lut_BUFX4
ABUFX4_173 [_310_] _310__bF$buf3 d_lut_BUFX4
ABUFX4_174 [_310_] _310__bF$buf2 d_lut_BUFX4
ABUFX4_175 [_310_] _310__bF$buf1 d_lut_BUFX4
ABUFX4_176 [_310_] _310__bF$buf0 d_lut_BUFX4
ABUFX4_177 [operand_B_4_] operand_B_4_bF$buf9_ d_lut_BUFX4
ABUFX4_178 [operand_B_4_] operand_B_4_bF$buf8_ d_lut_BUFX4
ABUFX4_179 [operand_B_4_] operand_B_4_bF$buf7_ d_lut_BUFX4
ABUFX4_180 [operand_B_4_] operand_B_4_bF$buf6_ d_lut_BUFX4
ABUFX4_181 [operand_B_4_] operand_B_4_bF$buf5_ d_lut_BUFX4
ABUFX4_182 [operand_B_4_] operand_B_4_bF$buf4_ d_lut_BUFX4
ABUFX4_183 [operand_B_4_] operand_B_4_bF$buf3_ d_lut_BUFX4
ABUFX4_184 [operand_B_4_] operand_B_4_bF$buf2_ d_lut_BUFX4
ABUFX4_185 [operand_B_4_] operand_B_4_bF$buf1_ d_lut_BUFX4
ABUFX4_186 [operand_B_4_] operand_B_4_bF$buf0_ d_lut_BUFX4
ABUFX4_187 [operand_B_1_] operand_B_1_bF$buf9_ d_lut_BUFX4
ABUFX4_188 [operand_B_1_] operand_B_1_bF$buf8_ d_lut_BUFX4
ABUFX4_189 [operand_B_1_] operand_B_1_bF$buf7_ d_lut_BUFX4
ABUFX4_190 [operand_B_1_] operand_B_1_bF$buf6_ d_lut_BUFX4
ABUFX4_191 [operand_B_1_] operand_B_1_bF$buf5_ d_lut_BUFX4
ABUFX4_192 [operand_B_1_] operand_B_1_bF$buf4_ d_lut_BUFX4
ABUFX4_193 [operand_B_1_] operand_B_1_bF$buf3_ d_lut_BUFX4
ABUFX4_194 [operand_B_1_] operand_B_1_bF$buf2_ d_lut_BUFX4
ABUFX4_195 [operand_B_1_] operand_B_1_bF$buf1_ d_lut_BUFX4
ABUFX4_196 [operand_B_1_] operand_B_1_bF$buf0_ d_lut_BUFX4
AXNOR2X1_1 [operand_A_30_ operand_B_30_] _1644_ d_lut_XNOR2X1
AINVX4_1 [_1644_] _1655_ d_lut_INVX4
AINVX2_1 [operand_B_29_] _1665_ d_lut_INVX2
AINVX2_2 [operand_A_29_] _1676_ d_lut_INVX2
ANOR2X1_1 [_1665_ _1676_] _1687_ d_lut_NOR2X1
AINVX1_1 [operand_B_28_] _1698_ d_lut_INVX1
AINVX4_2 [operand_A_28_] _1708_ d_lut_INVX4
ANOR2X1_2 [_1698_ _1708_] _1719_ d_lut_NOR2X1
ANAND2X1_1 [operand_A_29_ _1665_] _1730_ d_lut_NAND2X1
ANAND2X1_2 [operand_B_29_ _1676_] _1741_ d_lut_NAND2X1
ANAND2X1_3 [_1730_ _1741_] _1750_ d_lut_NAND2X1
AAOI21X1_1 [_1719_ _1750_ _1687_] _1761_ d_lut_AOI21X1
AINVX1_2 [_1761_] _1772_ d_lut_INVX1
AXNOR2X1_2 [operand_B_29_ operand_A_29_] _1783_ d_lut_XNOR2X1
AXNOR2X1_3 [operand_B_28_ operand_A_28_] _1794_ d_lut_XNOR2X1
ANOR2X1_3 [_1783_ _1794_] _1805_ d_lut_NOR2X1
AINVX4_3 [operand_A_22_] _1816_ d_lut_INVX4
ANOR2X1_4 [operand_B_22_ _1816_] _1826_ d_lut_NOR2X1
ANAND2X1_4 [operand_B_22_ _1816_] _1837_ d_lut_NAND2X1
AINVX1_3 [_1837_] _1848_ d_lut_INVX1
AXOR2X1_1 [operand_A_23_ operand_B_23_] _1859_ d_lut_XOR2X1
AOAI21X1_1 [_1848_ _1826_ _1859_] _1870_ d_lut_OAI21X1
AINVX4_4 [operand_A_21_] _1881_ d_lut_INVX4
ANOR2X1_5 [operand_B_21_ _1881_] _1892_ d_lut_NOR2X1
ANAND2X1_5 [operand_B_21_ _1881_] _1903_ d_lut_NAND2X1
AINVX1_4 [_1903_] _1914_ d_lut_INVX1
AINVX2_3 [operand_B_20_] _1925_ d_lut_INVX2
ANAND2X1_6 [operand_A_20_ _1925_] _1936_ d_lut_NAND2X1
AINVX2_4 [operand_A_20_] _1947_ d_lut_INVX2
ANAND2X1_7 [operand_B_20_ _1947_] _1958_ d_lut_NAND2X1
ANAND2X1_8 [_1936_ _1958_] _1969_ d_lut_NAND2X1
AOAI21X1_2 [_1914_ _1892_ _1969_] _1980_ d_lut_OAI21X1
ANOR2X1_6 [_1980_ _1870_] _1991_ d_lut_NOR2X1
AINVX2_5 [operand_B_18_] _2002_ d_lut_INVX2
ANAND2X1_9 [operand_A_18_ _2002_] _2012_ d_lut_NAND2X1
AINVX4_5 [operand_A_18_] _2023_ d_lut_INVX4
ANAND2X1_10 [operand_B_18_ _2023_] _2034_ d_lut_NAND2X1
ANAND2X1_11 [_2012_ _2034_] _2045_ d_lut_NAND2X1
AXOR2X1_2 [operand_B_19_ operand_A_19_] _2056_ d_lut_XOR2X1
ANAND2X1_12 [_2056_ _2045_] _2067_ d_lut_NAND2X1
AINVX1_5 [operand_B_17_] _2077_ d_lut_INVX1
AINVX4_6 [operand_A_17_] _2088_ d_lut_INVX4
ANOR2X1_7 [_2077_ _2088_] _2099_ d_lut_NOR2X1
AINVX1_6 [operand_B_16_] _2110_ d_lut_INVX1
AINVX2_6 [operand_A_16_] _2120_ d_lut_INVX2
ANOR2X1_8 [_2110_ _2120_] _2131_ d_lut_NOR2X1
ANAND2X1_13 [_2077_ _2088_] _2142_ d_lut_NAND2X1
AAOI21X1_2 [_2142_ _2131_ _2099_] _2153_ d_lut_AOI21X1
AINVX1_7 [operand_B_19_] _2163_ d_lut_INVX1
AINVX2_7 [operand_A_19_] _2174_ d_lut_INVX2
ANOR2X1_9 [_2163_ _2174_] _2185_ d_lut_NOR2X1
ANOR2X1_10 [_2023_ _2002_] _2195_ d_lut_NOR2X1
AAOI21X1_3 [_2195_ _2056_ _2185_] _2206_ d_lut_AOI21X1
AOAI21X1_3 [_2067_ _2153_ _2206_] _2217_ d_lut_OAI21X1
ANAND2X1_14 [operand_B_21_ operand_A_21_] _2228_ d_lut_NAND2X1
AOAI21X1_4 [_1925_ _1947_ _2228_] _2238_ d_lut_OAI21X1
AOAI21X1_5 [operand_B_21_ operand_A_21_ _2238_] _2249_ d_lut_OAI21X1
AINVX2_8 [operand_A_23_] _2260_ d_lut_INVX2
AINVX1_8 [operand_B_23_] _2270_ d_lut_INVX1
ANOR2X1_11 [_2260_ _2270_] _2281_ d_lut_NOR2X1
ANAND2X1_15 [_2260_ _2270_] _2291_ d_lut_NAND2X1
AINVX1_9 [operand_B_22_] _2302_ d_lut_INVX1
ANOR2X1_12 [_2302_ _1816_] _2313_ d_lut_NOR2X1
AAOI21X1_4 [_2291_ _2313_ _2281_] _2323_ d_lut_AOI21X1
AOAI21X1_6 [_1870_ _2249_ _2323_] _2334_ d_lut_OAI21X1
AAOI21X1_5 [_1991_ _2217_ _2334_] _2344_ d_lut_AOI21X1
AINVX1_10 [_2344_] _2355_ d_lut_INVX1
ANOR2X1_13 [operand_B_17_ _2088_] _2366_ d_lut_NOR2X1
ANAND2X1_16 [operand_B_17_ _2088_] _2376_ d_lut_NAND2X1
AINVX1_11 [_2376_] _2387_ d_lut_INVX1
ANAND2X1_17 [operand_A_16_ _2110_] _2397_ d_lut_NAND2X1
ANAND2X1_18 [operand_B_16_ _2120_] _2408_ d_lut_NAND2X1
ANAND2X1_19 [_2397_ _2408_] _2419_ d_lut_NAND2X1
AOAI21X1_7 [_2387_ _2366_ _2419_] _2429_ d_lut_OAI21X1
ANOR2X1_14 [_2067_ _2429_] _2440_ d_lut_NOR2X1
AAND2X2_1 [_1991_ _2440_] _2451_ d_lut_AND2X2
AINVX8_1 [operand_B_1_bF$buf9_] _2461_ d_lut_INVX8
AINVX2_9 [operand_A_1_] _2472_ d_lut_INVX2
ANOR2X1_15 [_2461__bF$buf10 _2472_] _2482_ d_lut_NOR2X1
AXOR2X1_3 [operand_B_1_bF$buf8_ operand_A_1_] _2493_ d_lut_XOR2X1
ANAND2X1_20 [operand_B_0_bF$buf12_ operand_A_0_] _2504_ d_lut_NAND2X1
AINVX2_10 [_2504_] _2514_ d_lut_INVX2
AAOI21X1_6 [_2514_ _2493_ _2482_] _2524_ d_lut_AOI21X1
AINVX8_2 [operand_B_3_bF$buf9_] _2535_ d_lut_INVX8
AINVX2_11 [operand_A_3_] _2545_ d_lut_INVX2
ANOR2X1_16 [_2535__bF$buf10 _2545_] _2556_ d_lut_NOR2X1
AINVX8_3 [operand_B_2_bF$buf9_] _2566_ d_lut_INVX8
AINVX2_12 [operand_A_2_] _2577_ d_lut_INVX2
ANOR2X1_17 [_2566__bF$buf10 _2577_] _2587_ d_lut_NOR2X1
AXOR2X1_4 [operand_B_3_bF$buf8_ operand_A_3_] _2598_ d_lut_XOR2X1
AAOI21X1_7 [_2587_ _2598_ _2556_] _2608_ d_lut_AOI21X1
ANOR2X1_18 [operand_B_2_bF$buf8_ _2577_] _2619_ d_lut_NOR2X1
ANOR2X1_19 [operand_A_2_ _2566__bF$buf9] _2630_ d_lut_NOR2X1
AOAI21X1_8 [_2619_ _2630_ _2598_] _2640_ d_lut_OAI21X1
AOAI21X1_9 [_2524_ _2640_ _2608_] _2650_ d_lut_OAI21X1
AINVX1_12 [operand_A_7_] _2661_ d_lut_INVX1
ANOR2X1_20 [operand_B_7_ _2661_] _2671_ d_lut_NOR2X1
AINVX1_13 [operand_B_7_] _2682_ d_lut_INVX1
ANOR2X1_21 [operand_A_7_ _2682_] _2692_ d_lut_NOR2X1
AINVX1_14 [operand_B_6_] _2702_ d_lut_INVX1
ANAND2X1_21 [operand_A_6_ _2702_] _2713_ d_lut_NAND2X1
AINVX2_13 [operand_A_6_] _2723_ d_lut_INVX2
ANAND2X1_22 [operand_B_6_ _2723_] _2734_ d_lut_NAND2X1
ANAND2X1_23 [_2713_ _2734_] _2744_ d_lut_NAND2X1
AOAI21X1_10 [_2671_ _2692_ _2744_] _2755_ d_lut_OAI21X1
AINVX2_14 [operand_A_5_] _2765_ d_lut_INVX2
ANOR2X1_22 [operand_B_5_bF$buf7_ _2765_] _2776_ d_lut_NOR2X1
AINVX8_4 [operand_B_5_bF$buf6_] _2784_ d_lut_INVX8
ANOR2X1_23 [operand_A_5_ _2784__bF$buf6] _2785_ d_lut_NOR2X1
AINVX8_5 [operand_B_4_bF$buf9_] _2786_ d_lut_INVX8
ANAND2X1_24 [operand_A_4_ _2786__bF$buf9] _2787_ d_lut_NAND2X1
AINVX4_7 [operand_A_4_] _2788_ d_lut_INVX4
ANAND2X1_25 [operand_B_4_bF$buf8_ _2788_] _2789_ d_lut_NAND2X1
ANAND2X1_26 [_2787_ _2789_] _2790_ d_lut_NAND2X1
AOAI21X1_11 [_2776_ _2785_ _2790_] _2791_ d_lut_OAI21X1
ANOR2X1_24 [_2755_ _2791_] _2792_ d_lut_NOR2X1
AXOR2X1_5 [operand_B_7_ operand_A_7_] _2793_ d_lut_XOR2X1
ANOR2X1_25 [_2682_ _2661_] _2794_ d_lut_NOR2X1
ANOR2X1_26 [_2723_ _2702_] _2795_ d_lut_NOR2X1
AAOI21X1_8 [_2795_ _2793_ _2794_] _2796_ d_lut_AOI21X1
ANAND2X1_27 [operand_B_4_bF$buf7_ operand_A_4_] _2797_ d_lut_NAND2X1
AOAI21X1_12 [_2784__bF$buf5 _2765_ _2797_] _2798_ d_lut_OAI21X1
AOAI21X1_13 [operand_B_5_bF$buf5_ operand_A_5_ _2798_] _2799_ d_lut_OAI21X1
AOAI21X1_14 [_2755_ _2799_ _2796_] _2800_ d_lut_OAI21X1
AAOI21X1_9 [_2650_ _2792_ _2800_] _2801_ d_lut_AOI21X1
AINVX1_15 [operand_B_15_] _2802_ d_lut_INVX1
ANAND2X1_28 [operand_A_15_ _2802_] _2803_ d_lut_NAND2X1
AINVX2_15 [operand_A_15_] _2804_ d_lut_INVX2
ANAND2X1_29 [operand_B_15_ _2804_] _2805_ d_lut_NAND2X1
ANAND2X1_30 [_2803_ _2805_] _2806_ d_lut_NAND2X1
AINVX1_16 [operand_B_14_] _2807_ d_lut_INVX1
ANAND2X1_31 [operand_A_14_ _2807_] _2808_ d_lut_NAND2X1
AINVX2_16 [operand_A_14_] _2809_ d_lut_INVX2
ANAND2X1_32 [operand_B_14_ _2809_] _2810_ d_lut_NAND2X1
ANAND2X1_33 [_2808_ _2810_] _2811_ d_lut_NAND2X1
AXNOR2X1_4 [operand_A_13_ operand_B_13_] _2812_ d_lut_XNOR2X1
AXNOR2X1_5 [operand_A_12_ operand_B_12_] _2813_ d_lut_XNOR2X1
ANOR2X1_27 [_2812_ _2813_] _2814_ d_lut_NOR2X1
ANAND3X1_1 [_2806_ _2811_ _2814_] _2815_ d_lut_NAND3X1
AXNOR2X1_6 [operand_A_11_ operand_B_11_] _2816_ d_lut_XNOR2X1
AXNOR2X1_7 [operand_B_10_ operand_A_10_] _2817_ d_lut_XNOR2X1
ANOR2X1_28 [_2816_ _2817_] _2818_ d_lut_NOR2X1
AXNOR2X1_8 [operand_A_9_ operand_B_9_] _2819_ d_lut_XNOR2X1
AINVX2_17 [_2819_] _2820_ d_lut_INVX2
AXNOR2X1_9 [operand_A_8_ operand_B_8_] _2821_ d_lut_XNOR2X1
AINVX1_17 [_2821_] _2822_ d_lut_INVX1
ANAND3X1_2 [_2820_ _2822_ _2818_] _2823_ d_lut_NAND3X1
AOR2X2_1 [_2815_ _2823_] _2824_ d_lut_OR2X2
AINVX2_18 [_2808_] _2825_ d_lut_INVX2
AINVX2_19 [_2810_] _2826_ d_lut_INVX2
AOAI21X1_15 [_2826_ _2825_ _2806_] _2827_ d_lut_OAI21X1
AINVX1_18 [operand_B_13_] _2828_ d_lut_INVX1
ANAND2X1_34 [operand_A_13_ _2828_] _2829_ d_lut_NAND2X1
AINVX2_20 [operand_A_13_] _2830_ d_lut_INVX2
ANAND2X1_35 [operand_B_13_ _2830_] _2831_ d_lut_NAND2X1
ANAND2X1_36 [_2829_ _2831_] _2832_ d_lut_NAND2X1
AINVX1_19 [operand_B_12_] _2833_ d_lut_INVX1
ANAND2X1_37 [operand_A_12_ _2833_] _2834_ d_lut_NAND2X1
AINVX2_21 [operand_A_12_] _2835_ d_lut_INVX2
ANAND2X1_38 [operand_B_12_ _2835_] _2836_ d_lut_NAND2X1
ANAND2X1_39 [_2834_ _2836_] _2837_ d_lut_NAND2X1
ANAND2X1_40 [_2832_ _2837_] _2838_ d_lut_NAND2X1
ANOR2X1_29 [_2838_ _2827_] _2839_ d_lut_NOR2X1
AXOR2X1_6 [operand_A_11_ operand_B_11_] _2840_ d_lut_XOR2X1
AINVX2_22 [operand_A_10_] _2841_ d_lut_INVX2
ANOR2X1_30 [operand_B_10_ _2841_] _2842_ d_lut_NOR2X1
AINVX2_23 [operand_B_10_] _2843_ d_lut_INVX2
ANOR2X1_31 [operand_A_10_ _2843_] _2844_ d_lut_NOR2X1
AOAI21X1_16 [_2842_ _2844_ _2840_] _2845_ d_lut_OAI21X1
AINVX2_24 [operand_A_9_] _2846_ d_lut_INVX2
AINVX2_25 [operand_B_9_] _2847_ d_lut_INVX2
ANOR2X1_32 [_2846_ _2847_] _2848_ d_lut_NOR2X1
AINVX2_26 [operand_A_8_] _2849_ d_lut_INVX2
AINVX1_20 [operand_B_8_] _2850_ d_lut_INVX1
ANOR2X1_33 [_2849_ _2850_] _2851_ d_lut_NOR2X1
ANAND2X1_41 [_2846_ _2847_] _2852_ d_lut_NAND2X1
AAOI21X1_10 [_2852_ _2851_ _2848_] _2853_ d_lut_AOI21X1
AINVX2_27 [operand_A_11_] _2854_ d_lut_INVX2
AINVX2_28 [operand_B_11_] _2855_ d_lut_INVX2
ANOR2X1_34 [_2854_ _2855_] _2856_ d_lut_NOR2X1
ANOR2X1_35 [_2843_ _2841_] _2857_ d_lut_NOR2X1
ANAND2X1_42 [_2854_ _2855_] _2858_ d_lut_NAND2X1
AAOI21X1_11 [_2858_ _2857_ _2856_] _2859_ d_lut_AOI21X1
AOAI21X1_17 [_2845_ _2853_ _2859_] _2860_ d_lut_OAI21X1
ANOR2X1_36 [_2830_ _2828_] _2861_ d_lut_NOR2X1
ANOR2X1_37 [_2835_ _2833_] _2862_ d_lut_NOR2X1
ANOR2X1_38 [operand_A_13_ operand_B_13_] _2863_ d_lut_NOR2X1
AINVX1_21 [_2863_] _2864_ d_lut_INVX1
AAOI21X1_12 [_2862_ _2864_ _2861_] _2865_ d_lut_AOI21X1
ANOR2X1_39 [_2804_ _2802_] _2866_ d_lut_NOR2X1
ANOR2X1_40 [_2807_ _2809_] _2867_ d_lut_NOR2X1
ANAND2X1_43 [_2804_ _2802_] _2868_ d_lut_NAND2X1
AAOI21X1_13 [_2868_ _2867_ _2866_] _2869_ d_lut_AOI21X1
AOAI21X1_18 [_2827_ _2865_ _2869_] _2870_ d_lut_OAI21X1
AAOI21X1_14 [_2860_ _2839_ _2870_] _2871_ d_lut_AOI21X1
AOAI21X1_19 [_2801_ _2824_ _2871_] _2872_ d_lut_OAI21X1
AAOI21X1_15 [_2451_ _2872_ _2355_] _2873_ d_lut_AOI21X1
AINVX2_29 [operand_B_27_] _2874_ d_lut_INVX2
AINVX2_30 [operand_A_27_] _2875_ d_lut_INVX2
ANAND2X1_44 [operand_B_26_ operand_A_26_] _2876_ d_lut_NAND2X1
AOAI21X1_20 [_2874_ _2875_ _2876_] _2877_ d_lut_OAI21X1
AOAI21X1_21 [operand_B_27_ operand_A_27_ _2877_] _2878_ d_lut_OAI21X1
ANAND2X1_45 [operand_B_27_ _2875_] _2879_ d_lut_NAND2X1
ANAND2X1_46 [operand_A_27_ _2874_] _2880_ d_lut_NAND2X1
ANAND2X1_47 [_2879_ _2880_] _2881_ d_lut_NAND2X1
AINVX1_22 [operand_B_26_] _2882_ d_lut_INVX1
ANAND2X1_48 [operand_A_26_ _2882_] _2883_ d_lut_NAND2X1
AINVX2_31 [operand_A_26_] _2884_ d_lut_INVX2
ANAND2X1_49 [operand_B_26_ _2884_] _2885_ d_lut_NAND2X1
ANAND2X1_50 [_2883_ _2885_] _2886_ d_lut_NAND2X1
ANAND2X1_51 [_2881_ _2886_] _2887_ d_lut_NAND2X1
AINVX4_8 [operand_A_25_] _2888_ d_lut_INVX4
AINVX1_23 [operand_B_25_] _2889_ d_lut_INVX1
ANOR2X1_41 [_2888_ _2889_] _2890_ d_lut_NOR2X1
AINVX2_32 [operand_A_24_] _2891_ d_lut_INVX2
AINVX1_24 [operand_B_24_] _2892_ d_lut_INVX1
ANOR2X1_42 [_2891_ _2892_] _2893_ d_lut_NOR2X1
ANAND2X1_52 [_2888_ _2889_] _2894_ d_lut_NAND2X1
AAOI21X1_16 [_2894_ _2893_ _2890_] _2895_ d_lut_AOI21X1
AOAI21X1_22 [_2887_ _2895_ _2878_] _2896_ d_lut_OAI21X1
AINVX1_25 [_2896_] _2897_ d_lut_INVX1
ANAND2X1_53 [operand_A_25_ _2889_] _2898_ d_lut_NAND2X1
ANAND2X1_54 [operand_B_25_ _2888_] _2899_ d_lut_NAND2X1
ANAND2X1_55 [_2898_ _2899_] _2900_ d_lut_NAND2X1
ANAND2X1_56 [operand_A_24_ _2892_] _2901_ d_lut_NAND2X1
ANAND2X1_57 [operand_B_24_ _2891_] _2902_ d_lut_NAND2X1
ANAND2X1_58 [_2901_ _2902_] _2903_ d_lut_NAND2X1
ANAND2X1_59 [_2900_ _2903_] _2904_ d_lut_NAND2X1
AOR2X2_2 [_2887_ _2904_] _2905_ d_lut_OR2X2
AOAI21X1_23 [_2873_ _2905_ _2897_] _2906_ d_lut_OAI21X1
AAOI21X1_17 [_1805_ _2906_ _1772_] _2907_ d_lut_AOI21X1
AINVX1_26 [_2907_] _2908_ d_lut_INVX1
ANOR2X1_43 [alu_op_3_ alu_op_2_] _2909_ d_lut_NOR2X1
AINVX2_33 [_2909_] _2910_ d_lut_INVX2
ANOR2X1_44 [alu_op_1_ alu_op_0_] _2911_ d_lut_NOR2X1
AINVX1_27 [_2911_] _2912_ d_lut_INVX1
ANOR2X1_45 [_2910_ _2912_] _2913_ d_lut_NOR2X1
AINVX8_6 [_2913__bF$buf3] _2914_ d_lut_INVX8
ANOR2X1_46 [_1644_ _2907_] _2915_ d_lut_NOR2X1
ANOR2X1_47 [_2914__bF$buf5 _2915_] _2916_ d_lut_NOR2X1
AOAI21X1_24 [_1655_ _2908_ _2916_] _2917_ d_lut_OAI21X1
AOAI21X1_25 [operand_B_28_ _1708_ _1730_] _2918_ d_lut_OAI21X1
AAND2X2_2 [_2918_ _1741_] _2919_ d_lut_AND2X2
AXNOR2X1_10 [operand_B_22_ operand_A_22_] _2920_ d_lut_XNOR2X1
AXNOR2X1_11 [operand_A_23_ operand_B_23_] _2921_ d_lut_XNOR2X1
ANAND2X1_60 [_2920_ _2921_] _2922_ d_lut_NAND2X1
AXNOR2X1_12 [operand_B_21_ operand_A_21_] _2923_ d_lut_XNOR2X1
AXNOR2X1_13 [operand_B_20_ operand_A_20_] _2924_ d_lut_XNOR2X1
ANAND2X1_61 [_2923_ _2924_] _2925_ d_lut_NAND2X1
ANOR2X1_48 [_2922_ _2925_] _2926_ d_lut_NOR2X1
AXNOR2X1_14 [operand_A_18_ operand_B_18_] _2927_ d_lut_XNOR2X1
AXNOR2X1_15 [operand_B_19_ operand_A_19_] _2928_ d_lut_XNOR2X1
ANAND2X1_62 [_2927_ _2928_] _2929_ d_lut_NAND2X1
ANOR2X1_49 [operand_B_16_ _2120_] _2930_ d_lut_NOR2X1
AAOI21X1_18 [_2376_ _2930_ _2366_] _2931_ d_lut_AOI21X1
ANOR2X1_50 [operand_B_18_ _2023_] _2932_ d_lut_NOR2X1
ANOR2X1_51 [operand_B_19_ _2174_] _2933_ d_lut_NOR2X1
ANAND2X1_63 [operand_B_19_ _2174_] _2934_ d_lut_NAND2X1
AAOI21X1_19 [_2934_ _2932_ _2933_] _2935_ d_lut_AOI21X1
AOAI21X1_26 [_2929_ _2931_ _2935_] _2936_ d_lut_OAI21X1
ANAND2X1_64 [_2926_ _2936_] _2937_ d_lut_NAND2X1
ANOR2X1_52 [operand_B_20_ _1947_] _2938_ d_lut_NOR2X1
AAOI21X1_20 [_1903_ _2938_ _1892_] _2939_ d_lut_AOI21X1
ANOR2X1_53 [operand_B_23_ _2260_] _2940_ d_lut_NOR2X1
ANAND2X1_65 [operand_B_23_ _2260_] _2941_ d_lut_NAND2X1
AAOI21X1_21 [_2941_ _1826_ _2940_] _2942_ d_lut_AOI21X1
AOAI21X1_27 [_2922_ _2939_ _2942_] _2943_ d_lut_OAI21X1
AINVX1_28 [_2943_] _2944_ d_lut_INVX1
ANAND2X1_66 [_2944_ _2937_] _2945_ d_lut_NAND2X1
ANOR2X1_54 [operand_B_1_bF$buf7_ _2472_] _2946_ d_lut_NOR2X1
ANAND2X1_67 [operand_B_1_bF$buf6_ _2472_] _2947_ d_lut_NAND2X1
AINVX1_29 [operand_A_0_] _2948_ d_lut_INVX1
ANAND2X1_68 [operand_B_0_bF$buf11_ _2948_] _2949_ d_lut_NAND2X1
AAOI21X1_22 [_2947_ _2949_ _2946_] _2950_ d_lut_AOI21X1
AXNOR2X1_16 [operand_B_2_bF$buf7_ operand_A_2_] _2951_ d_lut_XNOR2X1
AXNOR2X1_17 [operand_B_3_bF$buf7_ operand_A_3_] _2952_ d_lut_XNOR2X1
ANAND2X1_69 [_2951_ _2952_] _2953_ d_lut_NAND2X1
ANOR2X1_55 [operand_B_3_bF$buf6_ _2545_] _2954_ d_lut_NOR2X1
ANAND2X1_70 [operand_B_3_bF$buf5_ _2545_] _2955_ d_lut_NAND2X1
AAOI21X1_23 [_2955_ _2619_ _2954_] _2956_ d_lut_AOI21X1
AOAI21X1_28 [_2953_ _2950_ _2956_] _2957_ d_lut_OAI21X1
AXNOR2X1_18 [operand_B_7_ operand_A_7_] _2958_ d_lut_XNOR2X1
AXNOR2X1_19 [operand_A_6_ operand_B_6_] _2959_ d_lut_XNOR2X1
ANAND2X1_71 [_2958_ _2959_] _2960_ d_lut_NAND2X1
AXNOR2X1_20 [operand_B_5_bF$buf4_ operand_A_5_] _2961_ d_lut_XNOR2X1
AXNOR2X1_21 [operand_B_4_bF$buf6_ operand_A_4_] _2962_ d_lut_XNOR2X1
ANAND2X1_72 [_2961_ _2962_] _2963_ d_lut_NAND2X1
ANOR2X1_56 [_2960_ _2963_] _2964_ d_lut_NOR2X1
ANAND2X1_73 [operand_B_5_bF$buf3_ _2765_] _2965_ d_lut_NAND2X1
ANOR2X1_57 [operand_B_4_bF$buf5_ _2788_] _2966_ d_lut_NOR2X1
AAOI21X1_24 [_2965_ _2966_ _2776_] _2967_ d_lut_AOI21X1
ANOR2X1_58 [operand_B_6_ _2723_] _2968_ d_lut_NOR2X1
AAOI21X1_25 [_2968_ _2958_ _2671_] _2969_ d_lut_AOI21X1
AOAI21X1_29 [_2960_ _2967_ _2969_] _2970_ d_lut_OAI21X1
AAOI21X1_26 [_2964_ _2957_ _2970_] _2971_ d_lut_AOI21X1
AXNOR2X1_22 [operand_A_15_ operand_B_15_] _2972_ d_lut_XNOR2X1
AXNOR2X1_23 [operand_B_14_ operand_A_14_] _2973_ d_lut_XNOR2X1
ANAND2X1_74 [_2972_ _2973_] _2974_ d_lut_NAND2X1
ANAND2X1_75 [_2812_ _2813_] _2975_ d_lut_NAND2X1
ANOR2X1_59 [_2974_ _2975_] _2976_ d_lut_NOR2X1
ANAND2X1_76 [_2816_ _2817_] _2977_ d_lut_NAND2X1
ANAND2X1_77 [_2819_ _2821_] _2978_ d_lut_NAND2X1
ANOR2X1_60 [_2977_ _2978_] _2979_ d_lut_NOR2X1
ANAND2X1_78 [_2976_ _2979_] _2980_ d_lut_NAND2X1
ANOR2X1_61 [operand_B_9_ _2846_] _2981_ d_lut_NOR2X1
ANAND2X1_79 [operand_B_9_ _2846_] _2982_ d_lut_NAND2X1
ANOR2X1_62 [operand_B_8_ _2849_] _2983_ d_lut_NOR2X1
AAOI21X1_27 [_2982_ _2983_ _2981_] _2984_ d_lut_AOI21X1
ANOR2X1_63 [operand_B_11_ _2854_] _2985_ d_lut_NOR2X1
AAOI21X1_28 [_2842_ _2816_ _2985_] _2986_ d_lut_AOI21X1
AOAI21X1_30 [_2977_ _2984_ _2986_] _2987_ d_lut_OAI21X1
ANOR2X1_64 [operand_B_13_ _2830_] _2988_ d_lut_NOR2X1
ANOR2X1_65 [operand_B_12_ _2835_] _2989_ d_lut_NOR2X1
AAOI21X1_29 [_2831_ _2989_ _2988_] _2990_ d_lut_AOI21X1
AINVX1_30 [_2803_] _2991_ d_lut_INVX1
AAOI21X1_30 [_2805_ _2825_ _2991_] _2992_ d_lut_AOI21X1
AOAI21X1_31 [_2974_ _2990_ _2992_] _2993_ d_lut_OAI21X1
AAOI21X1_31 [_2976_ _2987_ _2993_] _2994_ d_lut_AOI21X1
AOAI21X1_32 [_2971_ _2980_ _2994_] _2995_ d_lut_OAI21X1
AXNOR2X1_24 [operand_B_17_ operand_A_17_] _2996_ d_lut_XNOR2X1