*SPICE netlist created from BLIF module ALU_64bit by blif2BSpice
.include /usr/share/qflow/tech/osu018/osu018_stdcells.sp
.subckt ALU_64bit vdd gnd clk reset operand_A[0] operand_A[1] operand_A[2] operand_A[3] operand_A[4] operand_A[5] operand_A[6] operand_A[7] operand_A[8] operand_A[9] operand_A[10] operand_A[11] operand_A[12] operand_A[13] operand_A[14] operand_A[15] operand_A[16] operand_A[17] operand_A[18] operand_A[19] operand_A[20] operand_A[21] operand_A[22] operand_A[23] operand_A[24] operand_A[25] operand_A[26] operand_A[27] operand_A[28] operand_A[29] operand_A[30] operand_A[31] operand_A[32] operand_A[33] operand_A[34] operand_A[35] operand_A[36] operand_A[37] operand_A[38] operand_A[39] operand_A[40] operand_A[41] operand_A[42] operand_A[43] operand_A[44] operand_A[45] operand_A[46] operand_A[47] operand_A[48] operand_A[49] operand_A[50] operand_A[51] operand_A[52] operand_A[53] operand_A[54] operand_A[55] operand_A[56] operand_A[57] operand_A[58] operand_A[59] operand_A[60] operand_A[61] operand_A[62] operand_A[63] operand_B[0] operand_B[1] operand_B[2] operand_B[3] operand_B[4] operand_B[5] operand_B[6] operand_B[7] operand_B[8] operand_B[9] operand_B[10] operand_B[11] operand_B[12] operand_B[13] operand_B[14] operand_B[15] operand_B[16] operand_B[17] operand_B[18] operand_B[19] operand_B[20] operand_B[21] operand_B[22] operand_B[23] operand_B[24] operand_B[25] operand_B[26] operand_B[27] operand_B[28] operand_B[29] operand_B[30] operand_B[31] operand_B[32] operand_B[33] operand_B[34] operand_B[35] operand_B[36] operand_B[37] operand_B[38] operand_B[39] operand_B[40] operand_B[41] operand_B[42] operand_B[43] operand_B[44] operand_B[45] operand_B[46] operand_B[47] operand_B[48] operand_B[49] operand_B[50] operand_B[51] operand_B[52] operand_B[53] operand_B[54] operand_B[55] operand_B[56] operand_B[57] operand_B[58] operand_B[59] operand_B[60] operand_B[61] operand_B[62] operand_B[63] alu_op[0] alu_op[1] alu_op[2] alu_op[3] result[0] result[1] result[2] result[3] result[4] result[5] result[6] result[7] result[8] result[9] result[10] result[11] result[12] result[13] result[14] result[15] result[16] result[17] result[18] result[19] result[20] result[21] result[22] result[23] result[24] result[25] result[26] result[27] result[28] result[29] result[30] result[31] result[32] result[33] result[34] result[35] result[36] result[37] result[38] result[39] result[40] result[41] result[42] result[43] result[44] result[45] result[46] result[47] result[48] result[49] result[50] result[51] result[52] result[53] result[54] result[55] result[56] result[57] result[58] result[59] result[60] result[61] result[62] result[63] zero_flag carry_flag overflow_flag 
XBUFX4_1 vdd gnd _3209_ _3209__bF$buf5 BUFX4
XBUFX4_2 vdd gnd _3209_ _3209__bF$buf4 BUFX4
XBUFX4_3 vdd gnd _3209_ _3209__bF$buf3 BUFX4
XBUFX4_4 vdd gnd _3209_ _3209__bF$buf2 BUFX4
XBUFX4_5 vdd gnd _3209_ _3209__bF$buf1 BUFX4
XBUFX4_6 vdd gnd _3209_ _3209__bF$buf0 BUFX4
XBUFX4_7 vdd gnd _3370_ _3370__bF$buf3 BUFX4
XBUFX4_8 vdd gnd _3370_ _3370__bF$buf2 BUFX4
XBUFX4_9 vdd gnd _3370_ _3370__bF$buf1 BUFX4
XBUFX4_10 vdd gnd _3370_ _3370__bF$buf0 BUFX4
XCLKBUF1_1 clk vdd gnd clk_bF$buf7 CLKBUF1
XCLKBUF1_2 clk vdd gnd clk_bF$buf6 CLKBUF1
XCLKBUF1_3 clk vdd gnd clk_bF$buf5 CLKBUF1
XCLKBUF1_4 clk vdd gnd clk_bF$buf4 CLKBUF1
XCLKBUF1_5 clk vdd gnd clk_bF$buf3 CLKBUF1
XCLKBUF1_6 clk vdd gnd clk_bF$buf2 CLKBUF1
XCLKBUF1_7 clk vdd gnd clk_bF$buf1 CLKBUF1
XCLKBUF1_8 clk vdd gnd clk_bF$buf0 CLKBUF1
XBUFX4_11 vdd gnd _661_ _661__bF$buf4 BUFX4
XBUFX4_12 vdd gnd _661_ _661__bF$buf3 BUFX4
XBUFX4_13 vdd gnd _661_ _661__bF$buf2 BUFX4
XBUFX4_14 vdd gnd _661_ _661__bF$buf1 BUFX4
XBUFX4_15 vdd gnd _661_ _661__bF$buf0 BUFX4
XBUFX4_16 vdd gnd _2535_ _2535__bF$buf10 BUFX4
XBUFX4_17 vdd gnd _2535_ _2535__bF$buf9 BUFX4
XBUFX4_18 vdd gnd _2535_ _2535__bF$buf8 BUFX4
XBUFX4_19 vdd gnd _2535_ _2535__bF$buf7 BUFX4
XBUFX4_20 vdd gnd _2535_ _2535__bF$buf6 BUFX4
XBUFX4_21 vdd gnd _2535_ _2535__bF$buf5 BUFX4
XBUFX4_22 vdd gnd _2535_ _2535__bF$buf4 BUFX4
XBUFX4_23 vdd gnd _2535_ _2535__bF$buf3 BUFX4
XBUFX4_24 vdd gnd _2535_ _2535__bF$buf2 BUFX4
XBUFX4_25 vdd gnd _2535_ _2535__bF$buf1 BUFX4
XBUFX4_26 vdd gnd _2535_ _2535__bF$buf0 BUFX4
XBUFX4_27 vdd gnd _2914_ _2914__bF$buf5 BUFX4
XBUFX4_28 vdd gnd _2914_ _2914__bF$buf4 BUFX4
XBUFX4_29 vdd gnd _2914_ _2914__bF$buf3 BUFX4
XBUFX4_30 vdd gnd _2914_ _2914__bF$buf2 BUFX4
XBUFX4_31 vdd gnd _2914_ _2914__bF$buf1 BUFX4
XBUFX4_32 vdd gnd _2914_ _2914__bF$buf0 BUFX4
XBUFX4_33 vdd gnd operand_B[3] operand_B[3_bF$buf9] BUFX4
XBUFX4_34 vdd gnd operand_B[3] operand_B[3_bF$buf8] BUFX4
XBUFX4_35 vdd gnd operand_B[3] operand_B[3_bF$buf7] BUFX4
XBUFX4_36 vdd gnd operand_B[3] operand_B[3_bF$buf6] BUFX4
XBUFX4_37 vdd gnd operand_B[3] operand_B[3_bF$buf5] BUFX4
XBUFX4_38 vdd gnd operand_B[3] operand_B[3_bF$buf4] BUFX4
XBUFX4_39 vdd gnd operand_B[3] operand_B[3_bF$buf3] BUFX4
XBUFX4_40 vdd gnd operand_B[3] operand_B[3_bF$buf2] BUFX4
XBUFX4_41 vdd gnd operand_B[3] operand_B[3_bF$buf1] BUFX4
XBUFX4_42 vdd gnd operand_B[3] operand_B[3_bF$buf0] BUFX4
XBUFX4_43 vdd gnd operand_B[0] operand_B[0_bF$buf12] BUFX4
XBUFX4_44 vdd gnd operand_B[0] operand_B[0_bF$buf11] BUFX4
XBUFX4_45 vdd gnd operand_B[0] operand_B[0_bF$buf10] BUFX4
XBUFX4_46 vdd gnd operand_B[0] operand_B[0_bF$buf9] BUFX4
XBUFX4_47 vdd gnd operand_B[0] operand_B[0_bF$buf8] BUFX4
XBUFX4_48 vdd gnd operand_B[0] operand_B[0_bF$buf7] BUFX4
XBUFX4_49 vdd gnd operand_B[0] operand_B[0_bF$buf6] BUFX4
XBUFX4_50 vdd gnd operand_B[0] operand_B[0_bF$buf5] BUFX4
XBUFX4_51 vdd gnd operand_B[0] operand_B[0_bF$buf4] BUFX4
XBUFX4_52 vdd gnd operand_B[0] operand_B[0_bF$buf3] BUFX4
XBUFX4_53 vdd gnd operand_B[0] operand_B[0_bF$buf2] BUFX4
XBUFX4_54 vdd gnd operand_B[0] operand_B[0_bF$buf1] BUFX4
XBUFX4_55 vdd gnd operand_B[0] operand_B[0_bF$buf0] BUFX4
XBUFX4_56 vdd gnd _3214_ _3214__bF$buf4 BUFX4
XBUFX4_57 vdd gnd _3214_ _3214__bF$buf3 BUFX4
XBUFX4_58 vdd gnd _3214_ _3214__bF$buf2 BUFX4
XBUFX4_59 vdd gnd _3214_ _3214__bF$buf1 BUFX4
XBUFX4_60 vdd gnd _3214_ _3214__bF$buf0 BUFX4
XBUFX4_61 vdd gnd _264_ _264__bF$buf4 BUFX4
XBUFX4_62 vdd gnd _264_ _264__bF$buf3 BUFX4
XBUFX4_63 vdd gnd _264_ _264__bF$buf2 BUFX4
XBUFX4_64 vdd gnd _264_ _264__bF$buf1 BUFX4
XBUFX4_65 vdd gnd _264_ _264__bF$buf0 BUFX4
XBUFX4_66 vdd gnd _2461_ _2461__bF$buf10 BUFX4
XBUFX4_67 vdd gnd _2461_ _2461__bF$buf9 BUFX4
XBUFX4_68 vdd gnd _2461_ _2461__bF$buf8 BUFX4
XBUFX4_69 vdd gnd _2461_ _2461__bF$buf7 BUFX4
XBUFX4_70 vdd gnd _2461_ _2461__bF$buf6 BUFX4
XBUFX4_71 vdd gnd _2461_ _2461__bF$buf5 BUFX4
XBUFX4_72 vdd gnd _2461_ _2461__bF$buf4 BUFX4
XBUFX4_73 vdd gnd _2461_ _2461__bF$buf3 BUFX4
XBUFX4_74 vdd gnd _2461_ _2461__bF$buf2 BUFX4
XBUFX4_75 vdd gnd _2461_ _2461__bF$buf1 BUFX4
XBUFX4_76 vdd gnd _2461_ _2461__bF$buf0 BUFX4
XBUFX4_77 vdd gnd _2784_ _2784__bF$buf6 BUFX4
XBUFX4_78 vdd gnd _2784_ _2784__bF$buf5 BUFX4
XBUFX4_79 vdd gnd _2784_ _2784__bF$buf4 BUFX4
XBUFX4_80 vdd gnd _2784_ _2784__bF$buf3 BUFX4
XBUFX4_81 vdd gnd _2784_ _2784__bF$buf2 BUFX4
XBUFX4_82 vdd gnd _2784_ _2784__bF$buf1 BUFX4
XBUFX4_83 vdd gnd _2784_ _2784__bF$buf0 BUFX4
XBUFX4_84 vdd gnd _158_ _158__bF$buf3 BUFX4
XBUFX4_85 vdd gnd _158_ _158__bF$buf2 BUFX4
XBUFX4_86 vdd gnd _158_ _158__bF$buf1 BUFX4
XBUFX4_87 vdd gnd _158_ _158__bF$buf0 BUFX4
XBUFX4_88 vdd gnd _3181_ _3181__bF$buf3 BUFX4
XBUFX4_89 vdd gnd _3181_ _3181__bF$buf2 BUFX4
XBUFX4_90 vdd gnd _3181_ _3181__bF$buf1 BUFX4
XBUFX4_91 vdd gnd _3181_ _3181__bF$buf0 BUFX4
XBUFX4_92 vdd gnd _3231_ _3231__bF$buf4 BUFX4
XBUFX4_93 vdd gnd _3231_ _3231__bF$buf3 BUFX4
XBUFX4_94 vdd gnd _3231_ _3231__bF$buf2 BUFX4
XBUFX4_95 vdd gnd _3231_ _3231__bF$buf1 BUFX4
XBUFX4_96 vdd gnd _3231_ _3231__bF$buf0 BUFX4
XBUFX4_97 vdd gnd enable_clk enable_clk_bF$buf7 BUFX4
XBUFX4_98 vdd gnd enable_clk enable_clk_bF$buf6 BUFX4
XBUFX4_99 vdd gnd enable_clk enable_clk_bF$buf5 BUFX4
XBUFX4_100 vdd gnd enable_clk enable_clk_bF$buf4 BUFX4
XBUFX4_101 vdd gnd enable_clk enable_clk_bF$buf3 BUFX4
XBUFX4_102 vdd gnd enable_clk enable_clk_bF$buf2 BUFX4
XBUFX4_103 vdd gnd enable_clk enable_clk_bF$buf1 BUFX4
XBUFX4_104 vdd gnd enable_clk enable_clk_bF$buf0 BUFX4
XBUFX4_105 vdd gnd _2913_ _2913__bF$buf3 BUFX4
XBUFX4_106 vdd gnd _2913_ _2913__bF$buf2 BUFX4
XBUFX4_107 vdd gnd _2913_ _2913__bF$buf1 BUFX4
XBUFX4_108 vdd gnd _2913_ _2913__bF$buf0 BUFX4
XBUFX4_109 vdd gnd operand_B[5] operand_B[5_bF$buf7] BUFX4
XBUFX4_110 vdd gnd operand_B[5] operand_B[5_bF$buf6] BUFX4
XBUFX4_111 vdd gnd operand_B[5] operand_B[5_bF$buf5] BUFX4
XBUFX4_112 vdd gnd operand_B[5] operand_B[5_bF$buf4] BUFX4
XBUFX4_113 vdd gnd operand_B[5] operand_B[5_bF$buf3] BUFX4
XBUFX4_114 vdd gnd operand_B[5] operand_B[5_bF$buf2] BUFX4
XBUFX4_115 vdd gnd operand_B[5] operand_B[5_bF$buf1] BUFX4
XBUFX4_116 vdd gnd operand_B[5] operand_B[5_bF$buf0] BUFX4
XBUFX4_117 vdd gnd _2566_ _2566__bF$buf10 BUFX4
XBUFX4_118 vdd gnd _2566_ _2566__bF$buf9 BUFX4
XBUFX4_119 vdd gnd _2566_ _2566__bF$buf8 BUFX4
XBUFX4_120 vdd gnd _2566_ _2566__bF$buf7 BUFX4
XBUFX4_121 vdd gnd _2566_ _2566__bF$buf6 BUFX4
XBUFX4_122 vdd gnd _2566_ _2566__bF$buf5 BUFX4
XBUFX4_123 vdd gnd _2566_ _2566__bF$buf4 BUFX4
XBUFX4_124 vdd gnd _2566_ _2566__bF$buf3 BUFX4
XBUFX4_125 vdd gnd _2566_ _2566__bF$buf2 BUFX4
XBUFX4_126 vdd gnd _2566_ _2566__bF$buf1 BUFX4
XBUFX4_127 vdd gnd _2566_ _2566__bF$buf0 BUFX4
XBUFX4_128 vdd gnd operand_B[2] operand_B[2_bF$buf9] BUFX4
XBUFX4_129 vdd gnd operand_B[2] operand_B[2_bF$buf8] BUFX4
XBUFX4_130 vdd gnd operand_B[2] operand_B[2_bF$buf7] BUFX4
XBUFX4_131 vdd gnd operand_B[2] operand_B[2_bF$buf6] BUFX4
XBUFX4_132 vdd gnd operand_B[2] operand_B[2_bF$buf5] BUFX4
XBUFX4_133 vdd gnd operand_B[2] operand_B[2_bF$buf4] BUFX4
XBUFX4_134 vdd gnd operand_B[2] operand_B[2_bF$buf3] BUFX4
XBUFX4_135 vdd gnd operand_B[2] operand_B[2_bF$buf2] BUFX4
XBUFX4_136 vdd gnd operand_B[2] operand_B[2_bF$buf1] BUFX4
XBUFX4_137 vdd gnd operand_B[2] operand_B[2_bF$buf0] BUFX4
XBUFX4_138 vdd gnd _3025_ _3025__bF$buf5 BUFX4
XBUFX4_139 vdd gnd _3025_ _3025__bF$buf4 BUFX4
XBUFX4_140 vdd gnd _3025_ _3025__bF$buf3 BUFX4
XBUFX4_141 vdd gnd _3025_ _3025__bF$buf2 BUFX4
XBUFX4_142 vdd gnd _3025_ _3025__bF$buf1 BUFX4
XBUFX4_143 vdd gnd _3025_ _3025__bF$buf0 BUFX4
XBUFX4_144 vdd gnd _169_ _169__bF$buf3 BUFX4
XBUFX4_145 vdd gnd _169_ _169__bF$buf2 BUFX4
XBUFX4_146 vdd gnd _169_ _169__bF$buf1 BUFX4
XBUFX4_147 vdd gnd _169_ _169__bF$buf0 BUFX4
XBUFX4_148 vdd gnd _3213_ _3213__bF$buf5 BUFX4
XBUFX4_149 vdd gnd _3213_ _3213__bF$buf4 BUFX4
XBUFX4_150 vdd gnd _3213_ _3213__bF$buf3 BUFX4
XBUFX4_151 vdd gnd _3213_ _3213__bF$buf2 BUFX4
XBUFX4_152 vdd gnd _3213_ _3213__bF$buf1 BUFX4
XBUFX4_153 vdd gnd _3213_ _3213__bF$buf0 BUFX4
XBUFX4_154 vdd gnd _3383_ _3383__bF$buf4 BUFX4
XBUFX4_155 vdd gnd _3383_ _3383__bF$buf3 BUFX4
XBUFX4_156 vdd gnd _3383_ _3383__bF$buf2 BUFX4
XBUFX4_157 vdd gnd _3383_ _3383__bF$buf1 BUFX4
XBUFX4_158 vdd gnd _3383_ _3383__bF$buf0 BUFX4
XBUFX4_159 vdd gnd _2786_ _2786__bF$buf9 BUFX4
XBUFX4_160 vdd gnd _2786_ _2786__bF$buf8 BUFX4
XBUFX4_161 vdd gnd _2786_ _2786__bF$buf7 BUFX4
XBUFX4_162 vdd gnd _2786_ _2786__bF$buf6 BUFX4
XBUFX4_163 vdd gnd _2786_ _2786__bF$buf5 BUFX4
XBUFX4_164 vdd gnd _2786_ _2786__bF$buf4 BUFX4
XBUFX4_165 vdd gnd _2786_ _2786__bF$buf3 BUFX4
XBUFX4_166 vdd gnd _2786_ _2786__bF$buf2 BUFX4
XBUFX4_167 vdd gnd _2786_ _2786__bF$buf1 BUFX4
XBUFX4_168 vdd gnd _2786_ _2786__bF$buf0 BUFX4
XBUFX4_169 vdd gnd _3204_ _3204__bF$buf3 BUFX4
XBUFX4_170 vdd gnd _3204_ _3204__bF$buf2 BUFX4
XBUFX4_171 vdd gnd _3204_ _3204__bF$buf1 BUFX4
XBUFX4_172 vdd gnd _3204_ _3204__bF$buf0 BUFX4
XBUFX4_173 vdd gnd _310_ _310__bF$buf3 BUFX4
XBUFX4_174 vdd gnd _310_ _310__bF$buf2 BUFX4
XBUFX4_175 vdd gnd _310_ _310__bF$buf1 BUFX4
XBUFX4_176 vdd gnd _310_ _310__bF$buf0 BUFX4
XBUFX4_177 vdd gnd operand_B[4] operand_B[4_bF$buf9] BUFX4
XBUFX4_178 vdd gnd operand_B[4] operand_B[4_bF$buf8] BUFX4
XBUFX4_179 vdd gnd operand_B[4] operand_B[4_bF$buf7] BUFX4
XBUFX4_180 vdd gnd operand_B[4] operand_B[4_bF$buf6] BUFX4
XBUFX4_181 vdd gnd operand_B[4] operand_B[4_bF$buf5] BUFX4
XBUFX4_182 vdd gnd operand_B[4] operand_B[4_bF$buf4] BUFX4
XBUFX4_183 vdd gnd operand_B[4] operand_B[4_bF$buf3] BUFX4
XBUFX4_184 vdd gnd operand_B[4] operand_B[4_bF$buf2] BUFX4
XBUFX4_185 vdd gnd operand_B[4] operand_B[4_bF$buf1] BUFX4
XBUFX4_186 vdd gnd operand_B[4] operand_B[4_bF$buf0] BUFX4
XBUFX4_187 vdd gnd operand_B[1] operand_B[1_bF$buf9] BUFX4
XBUFX4_188 vdd gnd operand_B[1] operand_B[1_bF$buf8] BUFX4
XBUFX4_189 vdd gnd operand_B[1] operand_B[1_bF$buf7] BUFX4
XBUFX4_190 vdd gnd operand_B[1] operand_B[1_bF$buf6] BUFX4
XBUFX4_191 vdd gnd operand_B[1] operand_B[1_bF$buf5] BUFX4
XBUFX4_192 vdd gnd operand_B[1] operand_B[1_bF$buf4] BUFX4
XBUFX4_193 vdd gnd operand_B[1] operand_B[1_bF$buf3] BUFX4
XBUFX4_194 vdd gnd operand_B[1] operand_B[1_bF$buf2] BUFX4
XBUFX4_195 vdd gnd operand_B[1] operand_B[1_bF$buf1] BUFX4
XBUFX4_196 vdd gnd operand_B[1] operand_B[1_bF$buf0] BUFX4
XXNOR2X1_1 operand_A[30] operand_B[30] gnd vdd _1644_ XNOR2X1
XINVX4_1 vdd gnd _1655_ _1644_ INVX4
XINVX2_1 vdd gnd _1665_ operand_B[29] INVX2
XINVX2_2 vdd gnd _1676_ operand_A[29] INVX2
XNOR2X1_1 vdd _1676_ gnd _1687_ _1665_ NOR2X1
XINVX1_1 operand_B[28] _1698_ vdd gnd INVX1
XINVX4_2 vdd gnd _1708_ operand_A[28] INVX4
XNOR2X1_2 vdd _1708_ gnd _1719_ _1698_ NOR2X1
XNAND2X1_1 vdd _1730_ gnd operand_A[29] _1665_ NAND2X1
XNAND2X1_2 vdd _1741_ gnd operand_B[29] _1676_ NAND2X1
XNAND2X1_3 vdd _1750_ gnd _1730_ _1741_ NAND2X1
XAOI21X1_1 gnd vdd _1719_ _1750_ _1761_ _1687_ AOI21X1
XINVX1_2 _1761_ _1772_ vdd gnd INVX1
XXNOR2X1_2 operand_B[29] operand_A[29] gnd vdd _1783_ XNOR2X1
XXNOR2X1_3 operand_B[28] operand_A[28] gnd vdd _1794_ XNOR2X1
XNOR2X1_3 vdd _1794_ gnd _1805_ _1783_ NOR2X1
XINVX4_3 vdd gnd _1816_ operand_A[22] INVX4
XNOR2X1_4 vdd _1816_ gnd _1826_ operand_B[22] NOR2X1
XNAND2X1_4 vdd _1837_ gnd operand_B[22] _1816_ NAND2X1
XINVX1_3 _1837_ _1848_ vdd gnd INVX1
XXOR2X1_1 _1859_ vdd operand_B[23] operand_A[23] gnd XOR2X1
XOAI21X1_1 gnd vdd _1848_ _1826_ _1870_ _1859_ OAI21X1
XINVX4_4 vdd gnd _1881_ operand_A[21] INVX4
XNOR2X1_5 vdd _1881_ gnd _1892_ operand_B[21] NOR2X1
XNAND2X1_5 vdd _1903_ gnd operand_B[21] _1881_ NAND2X1
XINVX1_4 _1903_ _1914_ vdd gnd INVX1
XINVX2_3 vdd gnd _1925_ operand_B[20] INVX2
XNAND2X1_6 vdd _1936_ gnd operand_A[20] _1925_ NAND2X1
XINVX2_4 vdd gnd _1947_ operand_A[20] INVX2
XNAND2X1_7 vdd _1958_ gnd operand_B[20] _1947_ NAND2X1
XNAND2X1_8 vdd _1969_ gnd _1936_ _1958_ NAND2X1
XOAI21X1_2 gnd vdd _1914_ _1892_ _1980_ _1969_ OAI21X1
XNOR2X1_6 vdd _1870_ gnd _1991_ _1980_ NOR2X1
XINVX2_5 vdd gnd _2002_ operand_B[18] INVX2
XNAND2X1_9 vdd _2012_ gnd operand_A[18] _2002_ NAND2X1
XINVX4_5 vdd gnd _2023_ operand_A[18] INVX4
XNAND2X1_10 vdd _2034_ gnd operand_B[18] _2023_ NAND2X1
XNAND2X1_11 vdd _2045_ gnd _2012_ _2034_ NAND2X1
XXOR2X1_2 _2056_ vdd operand_A[19] operand_B[19] gnd XOR2X1
XNAND2X1_12 vdd _2067_ gnd _2056_ _2045_ NAND2X1
XINVX1_5 operand_B[17] _2077_ vdd gnd INVX1
XINVX4_6 vdd gnd _2088_ operand_A[17] INVX4
XNOR2X1_7 vdd _2088_ gnd _2099_ _2077_ NOR2X1
XINVX1_6 operand_B[16] _2110_ vdd gnd INVX1
XINVX2_6 vdd gnd _2120_ operand_A[16] INVX2
XNOR2X1_8 vdd _2120_ gnd _2131_ _2110_ NOR2X1
XNAND2X1_13 vdd _2142_ gnd _2077_ _2088_ NAND2X1
XAOI21X1_2 gnd vdd _2142_ _2131_ _2153_ _2099_ AOI21X1
XINVX1_7 operand_B[19] _2163_ vdd gnd INVX1
XINVX2_7 vdd gnd _2174_ operand_A[19] INVX2
XNOR2X1_9 vdd _2174_ gnd _2185_ _2163_ NOR2X1
XNOR2X1_10 vdd _2002_ gnd _2195_ _2023_ NOR2X1
XAOI21X1_3 gnd vdd _2195_ _2056_ _2206_ _2185_ AOI21X1
XOAI21X1_3 gnd vdd _2067_ _2153_ _2217_ _2206_ OAI21X1
XNAND2X1_14 vdd _2228_ gnd operand_B[21] operand_A[21] NAND2X1
XOAI21X1_4 gnd vdd _1925_ _1947_ _2238_ _2228_ OAI21X1
XOAI21X1_5 gnd vdd operand_B[21] operand_A[21] _2249_ _2238_ OAI21X1
XINVX2_8 vdd gnd _2260_ operand_A[23] INVX2
XINVX1_8 operand_B[23] _2270_ vdd gnd INVX1
XNOR2X1_11 vdd _2270_ gnd _2281_ _2260_ NOR2X1
XNAND2X1_15 vdd _2291_ gnd _2260_ _2270_ NAND2X1
XINVX1_9 operand_B[22] _2302_ vdd gnd INVX1
XNOR2X1_12 vdd _1816_ gnd _2313_ _2302_ NOR2X1
XAOI21X1_4 gnd vdd _2291_ _2313_ _2323_ _2281_ AOI21X1
XOAI21X1_6 gnd vdd _1870_ _2249_ _2334_ _2323_ OAI21X1
XAOI21X1_5 gnd vdd _1991_ _2217_ _2344_ _2334_ AOI21X1
XINVX1_10 _2344_ _2355_ vdd gnd INVX1
XNOR2X1_13 vdd _2088_ gnd _2366_ operand_B[17] NOR2X1
XNAND2X1_16 vdd _2376_ gnd operand_B[17] _2088_ NAND2X1
XINVX1_11 _2376_ _2387_ vdd gnd INVX1
XNAND2X1_17 vdd _2397_ gnd operand_A[16] _2110_ NAND2X1
XNAND2X1_18 vdd _2408_ gnd operand_B[16] _2120_ NAND2X1
XNAND2X1_19 vdd _2419_ gnd _2397_ _2408_ NAND2X1
XOAI21X1_7 gnd vdd _2387_ _2366_ _2429_ _2419_ OAI21X1
XNOR2X1_14 vdd _2429_ gnd _2440_ _2067_ NOR2X1
XAND2X2_1 vdd gnd _1991_ _2440_ _2451_ AND2X2
XINVX8_1 vdd gnd operand_B[1_bF$buf9] _2461_ INVX8
XINVX2_9 vdd gnd _2472_ operand_A[1] INVX2
XNOR2X1_15 vdd _2472_ gnd _2482_ _2461__bF$buf10 NOR2X1
XXOR2X1_3 _2493_ vdd operand_A[1] operand_B[1_bF$buf8] gnd XOR2X1
XNAND2X1_20 vdd _2504_ gnd operand_B[0_bF$buf12] operand_A[0] NAND2X1
XINVX2_10 vdd gnd _2514_ _2504_ INVX2
XAOI21X1_6 gnd vdd _2514_ _2493_ _2524_ _2482_ AOI21X1
XINVX8_2 vdd gnd operand_B[3_bF$buf9] _2535_ INVX8
XINVX2_11 vdd gnd _2545_ operand_A[3] INVX2
XNOR2X1_16 vdd _2545_ gnd _2556_ _2535__bF$buf0 NOR2X1
XINVX8_3 vdd gnd operand_B[2_bF$buf9] _2566_ INVX8
XINVX2_12 vdd gnd _2577_ operand_A[2] INVX2
XNOR2X1_17 vdd _2577_ gnd _2587_ _2566__bF$buf4 NOR2X1
XXOR2X1_4 _2598_ vdd operand_A[3] operand_B[3_bF$buf8] gnd XOR2X1
XAOI21X1_7 gnd vdd _2587_ _2598_ _2608_ _2556_ AOI21X1
XNOR2X1_18 vdd _2577_ gnd _2619_ operand_B[2_bF$buf8] NOR2X1
XNOR2X1_19 vdd _2566__bF$buf4 gnd _2630_ operand_A[2] NOR2X1
XOAI21X1_8 gnd vdd _2619_ _2630_ _2640_ _2598_ OAI21X1
XOAI21X1_9 gnd vdd _2524_ _2640_ _2650_ _2608_ OAI21X1
XINVX1_12 operand_A[7] _2661_ vdd gnd INVX1
XNOR2X1_20 vdd _2661_ gnd _2671_ operand_B[7] NOR2X1
XINVX1_13 operand_B[7] _2682_ vdd gnd INVX1
XNOR2X1_21 vdd _2682_ gnd _2692_ operand_A[7] NOR2X1
XINVX1_14 operand_B[6] _2702_ vdd gnd INVX1
XNAND2X1_21 vdd _2713_ gnd operand_A[6] _2702_ NAND2X1
XINVX2_13 vdd gnd _2723_ operand_A[6] INVX2
XNAND2X1_22 vdd _2734_ gnd operand_B[6] _2723_ NAND2X1
XNAND2X1_23 vdd _2744_ gnd _2713_ _2734_ NAND2X1
XOAI21X1_10 gnd vdd _2671_ _2692_ _2755_ _2744_ OAI21X1
XINVX2_14 vdd gnd _2765_ operand_A[5] INVX2
XNOR2X1_22 vdd _2765_ gnd _2776_ operand_B[5_bF$buf7] NOR2X1
XINVX8_4 vdd gnd operand_B[5_bF$buf6] _2784_ INVX8
XNOR2X1_23 vdd _2784__bF$buf1 gnd _2785_ operand_A[5] NOR2X1
XINVX8_5 vdd gnd operand_B[4_bF$buf9] _2786_ INVX8
XNAND2X1_24 vdd _2787_ gnd operand_A[4] _2786__bF$buf6 NAND2X1
XINVX4_7 vdd gnd _2788_ operand_A[4] INVX4
XNAND2X1_25 vdd _2789_ gnd operand_B[4_bF$buf8] _2788_ NAND2X1
XNAND2X1_26 vdd _2790_ gnd _2787_ _2789_ NAND2X1
XOAI21X1_11 gnd vdd _2776_ _2785_ _2791_ _2790_ OAI21X1
XNOR2X1_24 vdd _2791_ gnd _2792_ _2755_ NOR2X1
XXOR2X1_5 _2793_ vdd operand_A[7] operand_B[7] gnd XOR2X1
XNOR2X1_25 vdd _2661_ gnd _2794_ _2682_ NOR2X1
XNOR2X1_26 vdd _2702_ gnd _2795_ _2723_ NOR2X1
XAOI21X1_8 gnd vdd _2795_ _2793_ _2796_ _2794_ AOI21X1
XNAND2X1_27 vdd _2797_ gnd operand_B[4_bF$buf7] operand_A[4] NAND2X1
XOAI21X1_12 gnd vdd _2784__bF$buf1 _2765_ _2798_ _2797_ OAI21X1
XOAI21X1_13 gnd vdd operand_B[5_bF$buf5] operand_A[5] _2799_ _2798_ OAI21X1
XOAI21X1_14 gnd vdd _2755_ _2799_ _2800_ _2796_ OAI21X1
XAOI21X1_9 gnd vdd _2650_ _2792_ _2801_ _2800_ AOI21X1
XINVX1_15 operand_B[15] _2802_ vdd gnd INVX1
XNAND2X1_28 vdd _2803_ gnd operand_A[15] _2802_ NAND2X1
XINVX2_15 vdd gnd _2804_ operand_A[15] INVX2
XNAND2X1_29 vdd _2805_ gnd operand_B[15] _2804_ NAND2X1
XNAND2X1_30 vdd _2806_ gnd _2803_ _2805_ NAND2X1
XINVX1_16 operand_B[14] _2807_ vdd gnd INVX1
XNAND2X1_31 vdd _2808_ gnd operand_A[14] _2807_ NAND2X1
XINVX2_16 vdd gnd _2809_ operand_A[14] INVX2
XNAND2X1_32 vdd _2810_ gnd operand_B[14] _2809_ NAND2X1
XNAND2X1_33 vdd _2811_ gnd _2808_ _2810_ NAND2X1
XXNOR2X1_4 operand_A[13] operand_B[13] gnd vdd _2812_ XNOR2X1
XXNOR2X1_5 operand_A[12] operand_B[12] gnd vdd _2813_ XNOR2X1
XNOR2X1_27 vdd _2813_ gnd _2814_ _2812_ NOR2X1
XNAND3X1_1 _2811_ vdd gnd _2806_ _2814_ _2815_ NAND3X1
XXNOR2X1_6 operand_A[11] operand_B[11] gnd vdd _2816_ XNOR2X1
XXNOR2X1_7 operand_B[10] operand_A[10] gnd vdd _2817_ XNOR2X1
XNOR2X1_28 vdd _2817_ gnd _2818_ _2816_ NOR2X1
XXNOR2X1_8 operand_A[9] operand_B[9] gnd vdd _2819_ XNOR2X1
XINVX2_17 vdd gnd _2820_ _2819_ INVX2
XXNOR2X1_9 operand_A[8] operand_B[8] gnd vdd _2821_ XNOR2X1
XINVX1_17 _2821_ _2822_ vdd gnd INVX1
XNAND3X1_2 _2822_ vdd gnd _2820_ _2818_ _2823_ NAND3X1
XOR2X2_1 _2824_ _2823_ vdd gnd _2815_ OR2X2
XINVX2_18 vdd gnd _2825_ _2808_ INVX2
XINVX2_19 vdd gnd _2826_ _2810_ INVX2
XOAI21X1_15 gnd vdd _2826_ _2825_ _2827_ _2806_ OAI21X1
XINVX1_18 operand_B[13] _2828_ vdd gnd INVX1
XNAND2X1_34 vdd _2829_ gnd operand_A[13] _2828_ NAND2X1
XINVX2_20 vdd gnd _2830_ operand_A[13] INVX2
XNAND2X1_35 vdd _2831_ gnd operand_B[13] _2830_ NAND2X1
XNAND2X1_36 vdd _2832_ gnd _2829_ _2831_ NAND2X1
XINVX1_19 operand_B[12] _2833_ vdd gnd INVX1
XNAND2X1_37 vdd _2834_ gnd operand_A[12] _2833_ NAND2X1
XINVX2_21 vdd gnd _2835_ operand_A[12] INVX2
XNAND2X1_38 vdd _2836_ gnd operand_B[12] _2835_ NAND2X1
XNAND2X1_39 vdd _2837_ gnd _2834_ _2836_ NAND2X1
XNAND2X1_40 vdd _2838_ gnd _2832_ _2837_ NAND2X1
XNOR2X1_29 vdd _2827_ gnd _2839_ _2838_ NOR2X1
XXOR2X1_6 _2840_ vdd operand_B[11] operand_A[11] gnd XOR2X1
XINVX2_22 vdd gnd _2841_ operand_A[10] INVX2
XNOR2X1_30 vdd _2841_ gnd _2842_ operand_B[10] NOR2X1
XINVX2_23 vdd gnd _2843_ operand_B[10] INVX2
XNOR2X1_31 vdd _2843_ gnd _2844_ operand_A[10] NOR2X1
XOAI21X1_16 gnd vdd _2842_ _2844_ _2845_ _2840_ OAI21X1
XINVX2_24 vdd gnd _2846_ operand_A[9] INVX2
XINVX2_25 vdd gnd _2847_ operand_B[9] INVX2
XNOR2X1_32 vdd _2847_ gnd _2848_ _2846_ NOR2X1
XINVX2_26 vdd gnd _2849_ operand_A[8] INVX2
XINVX1_20 operand_B[8] _2850_ vdd gnd INVX1
XNOR2X1_33 vdd _2850_ gnd _2851_ _2849_ NOR2X1
XNAND2X1_41 vdd _2852_ gnd _2846_ _2847_ NAND2X1
XAOI21X1_10 gnd vdd _2852_ _2851_ _2853_ _2848_ AOI21X1
XINVX2_27 vdd gnd _2854_ operand_A[11] INVX2
XINVX2_28 vdd gnd _2855_ operand_B[11] INVX2
XNOR2X1_34 vdd _2855_ gnd _2856_ _2854_ NOR2X1
XNOR2X1_35 vdd _2841_ gnd _2857_ _2843_ NOR2X1
XNAND2X1_42 vdd _2858_ gnd _2854_ _2855_ NAND2X1
XAOI21X1_11 gnd vdd _2858_ _2857_ _2859_ _2856_ AOI21X1
XOAI21X1_17 gnd vdd _2845_ _2853_ _2860_ _2859_ OAI21X1
XNOR2X1_36 vdd _2828_ gnd _2861_ _2830_ NOR2X1
XNOR2X1_37 vdd _2833_ gnd _2862_ _2835_ NOR2X1
XNOR2X1_38 vdd operand_B[13] gnd _2863_ operand_A[13] NOR2X1
XINVX1_21 _2863_ _2864_ vdd gnd INVX1
XAOI21X1_12 gnd vdd _2862_ _2864_ _2865_ _2861_ AOI21X1
XNOR2X1_39 vdd _2802_ gnd _2866_ _2804_ NOR2X1
XNOR2X1_40 vdd _2809_ gnd _2867_ _2807_ NOR2X1
XNAND2X1_43 vdd _2868_ gnd _2804_ _2802_ NAND2X1
XAOI21X1_13 gnd vdd _2868_ _2867_ _2869_ _2866_ AOI21X1
XOAI21X1_18 gnd vdd _2827_ _2865_ _2870_ _2869_ OAI21X1
XAOI21X1_14 gnd vdd _2860_ _2839_ _2871_ _2870_ AOI21X1
XOAI21X1_19 gnd vdd _2801_ _2824_ _2872_ _2871_ OAI21X1
XAOI21X1_15 gnd vdd _2451_ _2872_ _2873_ _2355_ AOI21X1
XINVX2_29 vdd gnd _2874_ operand_B[27] INVX2
XINVX2_30 vdd gnd _2875_ operand_A[27] INVX2
XNAND2X1_44 vdd _2876_ gnd operand_B[26] operand_A[26] NAND2X1
XOAI21X1_20 gnd vdd _2874_ _2875_ _2877_ _2876_ OAI21X1
XOAI21X1_21 gnd vdd operand_B[27] operand_A[27] _2878_ _2877_ OAI21X1
XNAND2X1_45 vdd _2879_ gnd operand_B[27] _2875_ NAND2X1
XNAND2X1_46 vdd _2880_ gnd operand_A[27] _2874_ NAND2X1
XNAND2X1_47 vdd _2881_ gnd _2879_ _2880_ NAND2X1
XINVX1_22 operand_B[26] _2882_ vdd gnd INVX1
XNAND2X1_48 vdd _2883_ gnd operand_A[26] _2882_ NAND2X1
XINVX2_31 vdd gnd _2884_ operand_A[26] INVX2
XNAND2X1_49 vdd _2885_ gnd operand_B[26] _2884_ NAND2X1
XNAND2X1_50 vdd _2886_ gnd _2883_ _2885_ NAND2X1
XNAND2X1_51 vdd _2887_ gnd _2881_ _2886_ NAND2X1
XINVX4_8 vdd gnd _2888_ operand_A[25] INVX4
XINVX1_23 operand_B[25] _2889_ vdd gnd INVX1
XNOR2X1_41 vdd _2889_ gnd _2890_ _2888_ NOR2X1
XINVX2_32 vdd gnd _2891_ operand_A[24] INVX2
XINVX1_24 operand_B[24] _2892_ vdd gnd INVX1
XNOR2X1_42 vdd _2892_ gnd _2893_ _2891_ NOR2X1
XNAND2X1_52 vdd _2894_ gnd _2888_ _2889_ NAND2X1
XAOI21X1_16 gnd vdd _2894_ _2893_ _2895_ _2890_ AOI21X1
XOAI21X1_22 gnd vdd _2887_ _2895_ _2896_ _2878_ OAI21X1
XINVX1_25 _2896_ _2897_ vdd gnd INVX1
XNAND2X1_53 vdd _2898_ gnd operand_A[25] _2889_ NAND2X1
XNAND2X1_54 vdd _2899_ gnd operand_B[25] _2888_ NAND2X1
XNAND2X1_55 vdd _2900_ gnd _2898_ _2899_ NAND2X1
XNAND2X1_56 vdd _2901_ gnd operand_A[24] _2892_ NAND2X1
XNAND2X1_57 vdd _2902_ gnd operand_B[24] _2891_ NAND2X1
XNAND2X1_58 vdd _2903_ gnd _2901_ _2902_ NAND2X1
XNAND2X1_59 vdd _2904_ gnd _2900_ _2903_ NAND2X1
XOR2X2_2 _2905_ _2904_ vdd gnd _2887_ OR2X2
XOAI21X1_23 gnd vdd _2873_ _2905_ _2906_ _2897_ OAI21X1
XAOI21X1_17 gnd vdd _1805_ _2906_ _2907_ _1772_ AOI21X1
XINVX1_26 _2907_ _2908_ vdd gnd INVX1
XNOR2X1_43 vdd alu_op[2] gnd _2909_ alu_op[3] NOR2X1
XINVX2_33 vdd gnd _2910_ _2909_ INVX2
XNOR2X1_44 vdd alu_op[0] gnd _2911_ alu_op[1] NOR2X1
XINVX1_27 _2911_ _2912_ vdd gnd INVX1
XNOR2X1_45 vdd _2912_ gnd _2913_ _2910_ NOR2X1
XINVX8_6 vdd gnd _2913__bF$buf2 _2914_ INVX8
XNOR2X1_46 vdd _2907_ gnd _2915_ _1644_ NOR2X1
XNOR2X1_47 vdd _2915_ gnd _2916_ _2914__bF$buf3 NOR2X1
XOAI21X1_24 gnd vdd _1655_ _2908_ _2917_ _2916_ OAI21X1
XOAI21X1_25 gnd vdd operand_B[28] _1708_ _2918_ _1730_ OAI21X1
XAND2X2_2 vdd gnd _2918_ _1741_ _2919_ AND2X2
XXNOR2X1_10 operand_B[22] operand_A[22] gnd vdd _2920_ XNOR2X1
XXNOR2X1_11 operand_A[23] operand_B[23] gnd vdd _2921_ XNOR2X1
XNAND2X1_60 vdd _2922_ gnd _2920_ _2921_ NAND2X1
XXNOR2X1_12 operand_B[21] operand_A[21] gnd vdd _2923_ XNOR2X1
XXNOR2X1_13 operand_B[20] operand_A[20] gnd vdd _2924_ XNOR2X1
XNAND2X1_61 vdd _2925_ gnd _2923_ _2924_ NAND2X1
XNOR2X1_48 vdd _2925_ gnd _2926_ _2922_ NOR2X1
XXNOR2X1_14 operand_A[18] operand_B[18] gnd vdd _2927_ XNOR2X1
XXNOR2X1_15 operand_B[19] operand_A[19] gnd vdd _2928_ XNOR2X1
XNAND2X1_62 vdd _2929_ gnd _2927_ _2928_ NAND2X1
XNOR2X1_49 vdd _2120_ gnd _2930_ operand_B[16] NOR2X1
XAOI21X1_18 gnd vdd _2376_ _2930_ _2931_ _2366_ AOI21X1
XNOR2X1_50 vdd _2023_ gnd _2932_ operand_B[18] NOR2X1
XNOR2X1_51 vdd _2174_ gnd _2933_ operand_B[19] NOR2X1
XNAND2X1_63 vdd _2934_ gnd operand_B[19] _2174_ NAND2X1
XAOI21X1_19 gnd vdd _2934_ _2932_ _2935_ _2933_ AOI21X1
XOAI21X1_26 gnd vdd _2929_ _2931_ _2936_ _2935_ OAI21X1
XNAND2X1_64 vdd _2937_ gnd _2926_ _2936_ NAND2X1
XNOR2X1_52 vdd _1947_ gnd _2938_ operand_B[20] NOR2X1
XAOI21X1_20 gnd vdd _1903_ _2938_ _2939_ _1892_ AOI21X1
XNOR2X1_53 vdd _2260_ gnd _2940_ operand_B[23] NOR2X1
XNAND2X1_65 vdd _2941_ gnd operand_B[23] _2260_ NAND2X1
XAOI21X1_21 gnd vdd _2941_ _1826_ _2942_ _2940_ AOI21X1
XOAI21X1_27 gnd vdd _2922_ _2939_ _2943_ _2942_ OAI21X1
XINVX1_28 _2943_ _2944_ vdd gnd INVX1
XNAND2X1_66 vdd _2945_ gnd _2944_ _2937_ NAND2X1
XNOR2X1_54 vdd _2472_ gnd _2946_ operand_B[1_bF$buf7] NOR2X1
XNAND2X1_67 vdd _2947_ gnd operand_B[1_bF$buf6] _2472_ NAND2X1
XINVX1_29 operand_A[0] _2948_ vdd gnd INVX1
XNAND2X1_68 vdd _2949_ gnd operand_B[0_bF$buf11] _2948_ NAND2X1
XAOI21X1_22 gnd vdd _2947_ _2949_ _2950_ _2946_ AOI21X1
XXNOR2X1_16 operand_B[2_bF$buf7] operand_A[2] gnd vdd _2951_ XNOR2X1
XXNOR2X1_17 operand_B[3_bF$buf7] operand_A[3] gnd vdd _2952_ XNOR2X1
XNAND2X1_69 vdd _2953_ gnd _2951_ _2952_ NAND2X1
XNOR2X1_55 vdd _2545_ gnd _2954_ operand_B[3_bF$buf6] NOR2X1
XNAND2X1_70 vdd _2955_ gnd operand_B[3_bF$buf5] _2545_ NAND2X1
XAOI21X1_23 gnd vdd _2955_ _2619_ _2956_ _2954_ AOI21X1
XOAI21X1_28 gnd vdd _2953_ _2950_ _2957_ _2956_ OAI21X1
XXNOR2X1_18 operand_B[7] operand_A[7] gnd vdd _2958_ XNOR2X1
XXNOR2X1_19 operand_A[6] operand_B[6] gnd vdd _2959_ XNOR2X1
XNAND2X1_71 vdd _2960_ gnd _2958_ _2959_ NAND2X1
XXNOR2X1_20 operand_B[5_bF$buf4] operand_A[5] gnd vdd _2961_ XNOR2X1
XXNOR2X1_21 operand_B[4_bF$buf6] operand_A[4] gnd vdd _2962_ XNOR2X1
XNAND2X1_72 vdd _2963_ gnd _2961_ _2962_ NAND2X1
XNOR2X1_56 vdd _2963_ gnd _2964_ _2960_ NOR2X1
XNAND2X1_73 vdd _2965_ gnd operand_B[5_bF$buf3] _2765_ NAND2X1
XNOR2X1_57 vdd _2788_ gnd _2966_ operand_B[4_bF$buf5] NOR2X1
XAOI21X1_24 gnd vdd _2965_ _2966_ _2967_ _2776_ AOI21X1
XNOR2X1_58 vdd _2723_ gnd _2968_ operand_B[6] NOR2X1
XAOI21X1_25 gnd vdd _2968_ _2958_ _2969_ _2671_ AOI21X1
XOAI21X1_29 gnd vdd _2960_ _2967_ _2970_ _2969_ OAI21X1
XAOI21X1_26 gnd vdd _2964_ _2957_ _2971_ _2970_ AOI21X1
XXNOR2X1_22 operand_A[15] operand_B[15] gnd vdd _2972_ XNOR2X1
XXNOR2X1_23 operand_B[14] operand_A[14] gnd vdd _2973_ XNOR2X1
XNAND2X1_74 vdd _2974_ gnd _2972_ _2973_ NAND2X1
XNAND2X1_75 vdd _2975_ gnd _2812_ _2813_ NAND2X1
XNOR2X1_59 vdd _2975_ gnd _2976_ _2974_ NOR2X1
XNAND2X1_76 vdd _2977_ gnd _2816_ _2817_ NAND2X1
XNAND2X1_77 vdd _2978_ gnd _2819_ _2821_ NAND2X1
XNOR2X1_60 vdd _2978_ gnd _2979_ _2977_ NOR2X1
XNAND2X1_78 vdd _2980_ gnd _2976_ _2979_ NAND2X1
XNOR2X1_61 vdd _2846_ gnd _2981_ operand_B[9] NOR2X1
XNAND2X1_79 vdd _2982_ gnd operand_B[9] _2846_ NAND2X1
XNOR2X1_62 vdd _2849_ gnd _2983_ operand_B[8] NOR2X1
XAOI21X1_27 gnd vdd _2982_ _2983_ _2984_ _2981_ AOI21X1
XNOR2X1_63 vdd _2854_ gnd _2985_ operand_B[11] NOR2X1
XAOI21X1_28 gnd vdd _2842_ _2816_ _2986_ _2985_ AOI21X1
XOAI21X1_30 gnd vdd _2977_ _2984_ _2987_ _2986_ OAI21X1
XNOR2X1_64 vdd _2830_ gnd _2988_ operand_B[13] NOR2X1
XNOR2X1_65 vdd _2835_ gnd _2989_ operand_B[12] NOR2X1
XAOI21X1_29 gnd vdd _2831_ _2989_ _2990_ _2988_ AOI21X1
XINVX1_30 _2803_ _2991_ vdd gnd INVX1
XAOI21X1_30 gnd vdd _2805_ _2825_ _2992_ _2991_ AOI21X1
XOAI21X1_31 gnd vdd _2974_ _2990_ _2993_ _2992_ OAI21X1
XAOI21X1_31 gnd vdd _2976_ _2987_ _2994_ _2993_ AOI21X1
XOAI21X1_32 gnd vdd _2971_ _2980_ _2995_ _2994_ OAI21X1
XXNOR2X1_24 operand_B[17] operand_A[17] gnd vdd _2996_ XNOR2X1
XXNOR2X1_25 operand_B[16] operand_A[16] gnd vdd _2997_ XNOR2X1
XNAND2X1_80 vdd _2998_ gnd _2996_ _2997_ NAND2X1
XNOR2X1_66 vdd _2998_ gnd _2999_ _2929_ NOR2X1
XNAND2X1_81 vdd _3000_ gnd _2926_ _2999_ NAND2X1
XINVX1_31 _3000_ _3001_ vdd gnd INVX1
XAOI21X1_32 gnd vdd _3001_ _2995_ _3002_ _2945_ AOI21X1
XOAI21X1_33 gnd vdd operand_B[27] _2875_ _3003_ _2883_ OAI21X1
XNOR2X1_67 vdd _2886_ gnd _3004_ _2881_ NOR2X1