*SPEF "IEEE 1481.1999"
*DESIGN "ALU_64bit"
*DATE "13:00:20 Sunday October 01, 2023"
*VENDOR "unknown"
*PROGRAM "qrouter"
*VERSION "unknown"
*DESIGN_FLOW "qflow"
*DIVIDER /
*DELIMITER :
*BUS_DELIMITER <>
*T_UNIT 1 PS
*C_UNIT 1 FF
*R_UNIT 1 OHM
*L_UNIT 1 HENRY

*NAME_MAP
*1 operand_B[0_bF_buf12]
*2 BUFX4_43
*3 OAI21X1_55
*4 OAI21X1_685
*5 NAND2X1_157
*6 NAND2X1_20
*7 MUX2X1_81
*8 OAI21X1_99
*9 OAI21X1_412
*10 OAI21X1_137
*11 OAI21X1_257
*12 OAI21X1_44
*13 NAND2X1_131
*14 NAND2X1_119
*15 NAND2X1_470
*16 OAI21X1_624
*17 NAND2X1_170
*18 operand_B[0_bF_buf11]
*19 BUFX4_44
*20 MUX2X1_4
*21 OAI21X1_686
*22 NAND2X1_404
*23 OAI21X1_534
*24 OAI21X1_126
*25 OAI21X1_80
*26 OAI21X1_275
*27 MUX2X1_19
*28 NAND2X1_95
*29 NAND2X1_147
*30 OAI21X1_68
*31 NAND2X1_68
*32 MUX2X1_82
*33 OAI21X1_113
*34 NOR2X1_408
*35 operand_B[0_bF_buf10]
*36 BUFX4_45
*37 MUX2X1_12
*38 NAND2X1_106
*39 OAI21X1_689
*40 MUX2X1_84
*41 MUX2X1_15
*42 MUX2X1_9
*43 NAND2X1_183
*44 NAND2X1_121
*45 OAI21X1_547
*46 OAI21X1_432
*47 NAND2X1_311
*48 MUX2X1_68
*49 OAI21X1_46
*50 OAI21X1_102
*51 NAND2X1_85
*52 operand_B[0_bF_buf9]
*53 BUFX4_46
*54 OAI21X1_57
*55 OAI21X1_36
*56 OAI21X1_690
*57 NAND2X1_160
*58 MUX2X1_85
*59 NAND2X1_413
*60 OAI21X1_140
*61 OAI21X1_293
*62 NAND2X1_96
*63 MUX2X1_70
*64 NAND2X1_148
*65 NAND2X1_133
*66 NAND2X1_173
*67 OAI21X1_70
*68 OAI21X1_556
*69 operand_B[0_bF_buf8]
*70 BUFX4_47
*71 NAND2X1_86
*72 AOI21X1_297
*73 OAI21X1_116
*74 MUX2X1_88
*75 OAI21X1_82
*76 NAND2X1_335
*77 NAND2X1_185
*78 OAI21X1_440
*79 OAI21X1_47
*80 OAI21X1_676
*81 OAI21X1_103
*82 OAI21X1_129
*83 NAND2X1_122
*84 OAI21X1_567
*85 MUX2X1_5
*86 operand_B[0_bF_buf7]
*87 BUFX4_48
*88 NOR2X1_76
*89 NAND2X1_162
*90 MUX2X1_89
*91 OAI21X1_691
*92 OAI21X1_37
*93 MUX2X1_72
*94 OAI21X1_456
*95 OAI21X1_71
*96 MUX2X1_16
*97 OAI21X1_322
*98 OAI21X1_142
*99 NAND2X1_150
*100 MUX2X1_10
*101 NAND2X1_112
*102 NAND2X1_499
*103 operand_B[0_bF_buf6]
*104 BUFX4_49
*105 MUX2X1_1
*106 OAI21X1_118
*107 MUX2X1_91
*108 NAND2X1_140
*109 NAND2X1_88
*110 MUX2X1_73
*111 OAI21X1_467
*112 NAND2X1_186
*113 MUX2X1_77
*114 OAI21X1_336
*115 NAND2X1_126
*116 OAI21X1_105
*117 NAND2X1_175
*118 OAI21X1_61
*119 OAI21X1_576
*120 operand_B[0_bF_buf5]
*121 BUFX4_50
*122 OAI21X1_679
*123 OAI21X1_39
*124 OAI21X1_479
*125 OAI21X1_131
*126 NAND2X1_114
*127 OAI21X1_586
*128 OAI21X1_348
*129 OAI21X1_75
*130 NAND2X1_151
*131 OAI21X1_143
*132 MUX2X1_78
*133 OAI21X1_95
*134 NAND2X1_101
*135 NAND2X1_163
*136 MUX2X1_92
*137 _3070_
*138 INVX8_7
*139 OAI22X1_12
*140 OAI21X1_483
*141 NOR2X1_125
*142 NOR2X1_484
*143 NOR2X1_494
*144 NOR2X1_497
*145 AOI21X1_227
*146 OAI21X1_632
*147 AOI21X1_241
*148 AOI21X1_254
*149 NOR2X1_274
*150 NOR2X1_75
*151 NOR2X1_287
*152 NOR2X1_294
*153 NOR2X1_129
*154 _3374_
*155 INVX8_13
*156 NAND2X1_394
*157 AND2X2_30
*158 AND2X2_31
*159 NAND3X1_28
*160 NAND3X1_23
*161 AND2X2_8
*162 NAND3X1_10
*163 NAND3X1_34
*164 NAND3X1_30
*165 NAND3X1_33
*166 AND2X2_43
*167 AND2X2_42
*168 AND2X2_34
*169 AND2X2_40
*170 NAND2X1_523
*171 _159_
*172 INVX8_15
*173 OAI21X1_840
*174 OAI21X1_698
*175 NOR2X1_444
*176 OAI21X1_790
*177 OAI21X1_801
*178 NOR2X1_436
*179 OAI21X1_455
*180 OAI21X1_206
*181 OAI21X1_398
*182 AOI21X1_144
*183 AOI21X1_148
*184 OAI21X1_370
*185 OAI21X1_203
*186 NOR2X1_268
*187 OAI22X1_4
*188 operand_B[0_bF_buf4]
*189 BUFX4_51
*190 OAI21X1_680
*191 NAND2X1_89
*192 NOR2X1_99
*193 OAI21X1_63
*194 NAND2X1_444
*195 NAND2X1_368
*196 MUX2X1_17
*197 MUX2X1_6
*198 OAI21X1_106
*199 OAI21X1_704
*200 OAI21X1_591
*201 OAI21X1_52
*202 OAI21X1_119
*203 NAND2X1_141
*204 operand_B[0_bF_buf3]
*205 BUFX4_52
*206 NAND2X1_560
*207 OAI21X1_40
*208 OAI21X1_491
*209 OAI21X1_371
*210 NAND2X1_178
*211 MUX2X1_7
*212 MUX2X1_79
*213 NAND2X1_167
*214 OAI21X1_604
*215 NAND2X1_115
*216 NAND2X1_102
*217 INVX1_79
*218 OAI21X1_110
*219 OAI21X1_96
*220 operand_B[0_bF_buf2]
*221 BUFX4_53
*222 OAI21X1_682
*223 OAI21X1_53
*224 NAND2X1_155
*225 NAND2X1_143
*226 OAI21X1_707
*227 OAI21X1_135
*228 NAND2X1_377
*229 NAND2X1_129
*230 NAND2X1_231
*231 NAND2X1_92
*232 OAI21X1_503
*233 OAI21X1_124
*234 NAND2X1_517
*235 OAI21X1_64
*236 operand_B[0_bF_buf1]
*237 BUFX4_54
*238 OAI21X1_683
*239 MUX2X1_3
*240 OAI21X1_111
*241 OAI21X1_98
*242 MUX2X1_18
*243 OAI21X1_382
*244 OAI21X1_511
*245 NAND2X1_118
*246 OAI21X1_77
*247 OAI21X1_198
*248 OAI21X1_43
*249 OAI21X1_613
*250 MUX2X1_13
*251 MUX2X1_80
*252 operand_B[0_bF_buf0]
*253 BUFX4_55
*254 NAND2X1_104
*255 MUX2X1_11
*256 NAND2X1_562
*257 NAND2X1_144
*258 MUX2X1_8
*259 OAI21X1_400
*260 NAND2X1_180
*261 OAI21X1_217
*262 NAND2X1_93
*263 OAI21X1_525
*264 OAI21X1_67
*265 MUX2X1_14
*266 NAND2X1_522
*267 OAI21X1_709
*268 _3105_
*269 INVX8_9
*270 AOI21X1_367
*271 AOI21X1_375
*272 AOI21X1_315
*273 AOI21X1_406
*274 AOI21X1_396
*275 AOI21X1_388
*276 AOI21X1_409
*277 AOI21X1_404
*278 AOI21X1_377
*279 AOI21X1_385
*280 NOR2X1_124
*281 AOI21X1_391
*282 AOI21X1_400
*283 AOI21X1_36
*284 _3373_
*285 OAI21X1_146
*286 OR2X2_18
*287 NOR2X1_175
*288 OR2X2_26
*289 NOR2X1_167
*290 OR2X2_4
*291 OR2X2_8
*292 NOR2X1_148
*293 NOR2X1_224
*294 OR2X2_20
*295 NOR2X1_254
*296 INVX8_13
*297 OR2X2_35
*298 NOR2X1_288
*299 NOR2X1_362
*300 operand_B[0]
*301 BUFX4_43
*302 BUFX4_50
*303 BUFX4_53
*304 BUFX4_52
*305 BUFX4_47
*306 BUFX4_46
*307 BUFX4_45
*308 BUFX4_55
*309 BUFX4_51
*310 BUFX4_44
*311 BUFX4_49
*312 BUFX4_48
*313 BUFX4_54
*314 _2461__bF_buf10
*315 BUFX4_66
*316 NAND2X1_100
*317 OAI21X1_51
*318 NAND2X1_156
*319 OAI21X1_720
*320 OAI21X1_112
*321 AOI21X1_298
*322 MUX2X1_90
*323 MUX2X1_100
*324 OAI21X1_692
*325 MUX2X1_93
*326 MUX2X1_86
*327 NOR2X1_15
*328 NAND2X1_194
*329 _2461__bF_buf9
*330 BUFX4_67
*331 NAND2X1_87
*332 OAI21X1_38
*333 OAI21X1_194
*334 NAND2X1_227
*335 OAI21X1_41
*336 NAND2X1_90
*337 OAI21X1_195
*338 NAND2X1_228
*339 OAI21X1_45
*340 OAI21X1_235
*341 OAI21X1_233
*342 OAI21X1_104
*343 OAI21X1_100
*344 _2461__bF_buf8
*345 BUFX4_68
*346 OAI21X1_72
*347 NAND2X1_123
*348 NAND2X1_152
*349 NAND2X1_120
*350 OAI21X1_69
*351 NAND2X1_208
*352 NAND2X1_357
*353 OAI21X1_276
*354 OAI21X1_175
*355 OAI21X1_107
*356 OAI21X1_230
*357 OAI21X1_349
*358 NAND2X1_298
*359 _2461__bF_buf7
*360 BUFX4_69
*361 NAND2X1_263
*362 NAND2X1_94
*363 OAI21X1_197
*364 OAI21X1_48
*365 NAND2X1_97
*366 NAND2X1_454
*367 MUX2X1_22
*368 OAI21X1_468
*369 OAI21X1_413
*370 NAND2X1_391
*371 NAND2X1_149
*372 NOR2X1_139
*373 OAI21X1_125
*374 _2461__bF_buf6
*375 BUFX4_70
*376 OAI21X1_614
*377 NAND2X1_509
*378 OAI21X1_592
*379 NAND2X1_262
*380 OAI21X1_557
*381 OAI21X1_577
*382 NAND2X1_481
*383 NAND2X1_500
*384 OAI21X1_512
*385 NAND2X1_230
*386 NAND2X1_518
*387 OAI21X1_232
*388 NAND2X1_168
*389 _2461__bF_buf5
*390 BUFX4_71
*391 NAND2X1_253
*392 NAND2X1_259
*393 OAI21X1_182
*394 NAND2X1_215
*395 OAI21X1_224
*396 OAI21X1_180
*397 NAND2X1_213
*398 NAND2X1_255
*399 NAND2X1_581
*400 OAI21X1_226
*401 OAI21X1_722
*402 OAI21X1_76
*403 NAND2X1_127
*404 _2461__bF_buf4
*405 BUFX4_72
*406 OAI21X1_181
*407 OAI21X1_227
*408 NAND2X1_584
*409 OAI21X1_725
*410 OAI21X1_144
*411 MUX2X1_69
*412 NAND2X1_568
*413 OAI21X1_705
*414 NAND2X1_570
*415 OAI21X1_703
*416 NAND2X1_187
*417 NAND2X1_256
*418 NAND2X1_214
*419 _3072_
*420 INVX8_8
*421 OAI22X1_19
*422 OAI22X1_15
*423 OAI22X1_1
*424 OAI22X1_16
*425 OAI22X1_10
*426 OAI21X1_398
*427 NOR2X1_160
*428 OAI21X1_625
*429 OAI21X1_455
*430 OAI21X1_206
*431 NOR2X1_170
*432 OAI21X1_817
*433 OAI21X1_370
*434 _3203_
*435 NOR2X1_86
*436 OAI21X1_862
*437 INVX8_10
*438 AOI21X1_335
*439 AOI21X1_221
*440 OAI21X1_839
*441 OAI21X1_853
*442 OAI21X1_850
*443 AOI22X1_38
*444 AOI21X1_320
*445 NAND2X1_607
*446 OAI21X1_800
*447 OAI21X1_830
*448 AOI21X1_324
*449 _2535__bF_buf10
*450 BUFX4_16
*451 OAI21X1_332
*452 NAND2X1_388
*453 OAI21X1_405
*454 NAND2X1_274
*455 MUX2X1_120
*456 OAI21X1_145
*457 MUX2X1_36
*458 OAI21X1_251
*459 OAI21X1_250
*460 MUX2X1_112
*461 NAND2X1_320
*462 OAI21X1_302
*463 _2535__bF_buf9
*464 BUFX4_17
*465 NAND2X1_372
*466 NAND2X1_385
*467 NAND2X1_99
*468 OAI21X1_339
*469 OAI21X1_50
*470 NAND2X1_350
*471 OAI21X1_514
*472 OAI21X1_260
*473 OAI21X1_399
*474 NAND2X1_352
*475 NAND2X1_279
*476 OAI21X1_201
*477 operand_B[3_bF_buf9]
*478 BUFX4_33
*479 INVX8_2
*480 OAI21X1_429
*481 OAI21X1_397
*482 NAND2X1_244
*483 OAI21X1_540
*484 OAI21X1_738
*485 MUX2X1_119
*486 MUX2X1_122
*487 NOR2X1_84
*488 MUX2X1_33
*489 AOI21X1_107
*490 MUX2X1_61
*491 _2461__bF_buf3
*492 BUFX4_73
*493 NAND2X1_429
*494 NAND2X1_405
*495 OAI21X1_433
*496 OAI21X1_457
*497 OAI21X1_526
*498 NAND2X1_466
*499 NAND2X1_451
*500 OAI21X1_504
*501 NAND2X1_422
*502 NAND2X1_439
*503 OAI21X1_480
*504 MUX2X1_50
*505 _2461__bF_buf2
*506 BUFX4_74
*507 NAND2X1_164
*508 NAND2X1_103
*509 OAI21X1_190
*510 NAND2X1_577
*511 OAI21X1_717
*512 MUX2X1_76
*513 NAND2X1_579
*514 NAND2X1_241
*515 OAI21X1_210
*516 OAI21X1_719
*517 NAND2X1_223
*518 NAND2X1_224
*519 _2461__bF_buf1
*520 BUFX4_75
*521 MUX2X1_53
*522 MUX2X1_65
*523 MUX2X1_56
*524 MUX2X1_59
*525 OAI21X1_258
*526 NAND2X1_281
*527 NAND2X1_348
*528 NAND2X1_369
*529 OAI21X1_401
*530 OAI21X1_337
*531 NAND2X1_386
*532 OAI21X1_372
*533 _2461__bF_buf0
*534 BUFX4_76
*535 OAI21X1_120
*536 OAI21X1_191
*537 OAI21X1_54
*538 NAND2X1_576
*539 OAI21X1_208
*540 NAND2X1_240
*541 OAI21X1_97
*542 NAND2X1_145
*543 NAND2X1_142
*544 OAI21X1_716
*545 NAND2X1_582
*546 OAI21X1_723
*547 _2566__bF_buf10
*548 BUFX4_117
*549 NAND2X1_165
*550 OAI21X1_121
*551 OAI21X1_253
*552 NAND2X1_277
*553 NAND2X1_302
*554 OAI21X1_279
*555 NAND2X1_225
*556 MUX2X1_35
*557 OAI21X1_290
*558 MUX2X1_2
*559 OAI21X1_192
*560 NAND2X1_308
*561 _2566__bF_buf9
*562 BUFX4_118
*563 OAI21X1_73
*564 NAND2X1_124
*565 NAND2X1_210
*566 NAND2X1_319
*567 OAI21X1_177
*568 OAI21X1_245
*569 NAND2X1_269
*570 OAI21X1_184
*571 NAND2X1_321
*572 NAND2X1_217
*573 MUX2X1_30
*574 OAI21X1_301
*575 _2566__bF_buf8
*576 BUFX4_119
*577 NAND2X1_278
*578 NAND2X1_91
*579 OAI21X1_42
*580 NAND2X1_146
*581 OAI21X1_108
*582 OAI21X1_196
*583 OAI21X1_256
*584 NAND2X1_229
*585 OAI21X1_292
*586 OAI21X1_49
*587 NAND2X1_280
*588 OAI21X1_254
*589 _2566__bF_buf7
*590 BUFX4_120
*591 NAND2X1_98
*592 NAND2X1_310
*593 OAI21X1_200
*594 NAND2X1_233
*595 OAI21X1_338
*596 NAND2X1_266
*597 OAI21X1_236
*598 OAI21X1_469
*599 OAI21X1_442
*600 NAND2X1_415
*601 NAND2X1_337
*602 NAND2X1_349
*603 _2566__bF_buf6
*604 BUFX4_121
*605 OAI21X1_513
*606 OAI21X1_481
*607 NAND2X1_430
*608 MUX2X1_41
*609 OAI21X1_527
*610 NAND2X1_472
*611 MUX2X1_66
*612 NAND2X1_467
*613 NAND2X1_504
*614 NAND2X1_440
*615 MUX2X1_45
*616 OAI21X1_536
*617 _2566__bF_buf5
*618 BUFX4_122
*619 NAND2X1_331
*620 OAI21X1_311
*621 NAND2X1_329
*622 OAI21X1_231
*623 NAND2X1_260
*624 OAI21X1_308
*625 NAND2X1_325
*626 OAI21X1_225
*627 NAND2X1_358
*628 OAI21X1_324
*629 NAND2X1_153
*630 NAND2X1_334
*631 _2566__bF_buf4
*632 BUFX4_123
*633 MUX2X1_110
*634 OAI21X1_718
*635 NOR2X1_425
*636 OAI21X1_720
*637 MUX2X1_94
*638 NAND3X1_7
*639 OAI21X1_741
*640 NOR2X1_17
*641 NOR2X1_19
*642 NAND2X1_199
*643 OAI21X1_692
*644 NAND2X1_243
*645 _2566__bF_buf3
*646 BUFX4_124
*647 NAND2X1_254
*648 OAI21X1_309
*649 NAND2X1_326
*650 OAI21X1_84
*651 NAND2X1_135
*652 NOR2X1_151
*653 MUX2X1_111
*654 NAND2X1_585
*655 OAI21X1_726
*656 MUX2X1_24
*657 MUX2X1_71
*658 MUX2X1_20
*659 operand_B[2_bF_buf9]
*660 BUFX4_128
*661 INVX8_3
*662 NAND2X1_297
*663 MUX2X1_74
*664 MUX2X1_113
*665 OAI21X1_297
*666 OAI21X1_259
*667 NAND2X1_406
*668 NAND2X1_379
*669 OAI21X1_88
*670 NAND2X1_211
*671 NAND2X1_589
*672 OAI21X1_220
*673 operand_B[2_bF_buf8]
*674 BUFX4_129
*675 OAI21X1_274
*676 OAI21X1_384
*677 OAI21X1_434
*678 NOR2X1_83
*679 OAI21X1_178
*680 OAI21X1_734
*681 MUX2X1_28
*682 NAND2X1_564
*683 OAI21X1_298
*684 NOR2X1_18
*685 NOR2X1_141
*686 MUX2X1_114
*687 operand_B[2_bF_buf7]
*688 BUFX4_130
*689 NAND2X1_221
*690 OAI21X1_688
*691 XNOR2X1_16
*692 OAI21X1_387
*693 MUX2X1_99
*694 NAND2X1_299
*695 NAND2X1_446
*696 NAND2X1_316
*697 NAND2X1_290
*698 NAND2X1_270
*699 NAND2X1_605
*700 NAND2X1_169
*701 operand_B[2_bF_buf6]
*702 BUFX4_131
*703 OAI21X1_189
*704 NAND2X1_108
*705 OAI21X1_277
*706 OAI21X1_493
*707 OAI21X1_128
*708 OAI21X1_299
*709 OAI21X1_265
*710 OAI21X1_246
*711 OAI21X1_784
*712 NAND2X1_569
*713 OAI21X1_396
*714 MUX2X1_101
*715 _2786__bF_buf9
*716 BUFX4_159
*717 AOI21X1_180
*718 NAND2X1_452
*719 NAND2X1_318
*720 AOI21X1_142
*721 AND2X2_14
*722 NAND2X1_272
*723 OAI21X1_252
*724 AND2X2_22
*725 OAI21X1_304
*726 NAND2X1_464
*727 OAI21X1_603
*728 OAI21X1_303
*729 _2786__bF_buf8
*730 BUFX4_160
*731 NOR2X1_211
*732 OAI21X1_261
*733 NOR2X1_446
*734 NAND2X1_514
*735 OAI21X1_605
*736 OAI21X1_459
*737 NAND2X1_424
*738 NOR2X1_449
*739 OAI21X1_123
*740 MUX2X1_32
*741 NAND2X1_465
*742 NOR2X1_194
*743 operand_B[4_bF_buf9]
*744 BUFX4_177
*745 INVX8_5
*746 OAI21X1_449
*747 MUX2X1_127
*748 NAND2X1_373
*749 NAND2X1_609
*750 OAI21X1_485
*751 OAI21X1_549
*752 NOR2X1_212
*753 NAND2X1_513
*754 OR2X2_10
*755 AOI21X1_362
*756 NOR2X1_87
*757 operand_B[4_bF_buf8]
*758 BUFX4_178
*759 OR2X2_43
*760 MUX2X1_123
*761 MUX2X1_128
*762 NOR2X1_213
*763 OAI21X1_554
*764 OAI21X1_376
*765 NOR2X1_360
*766 NAND2X1_25
*767 NAND2X1_296
*768 MUX2X1_21
*769 NOR2X1_235
*770 OAI21X1_490
*771 operand_B[4_bF_buf7]
*772 BUFX4_179
*773 NOR2X1_455
*774 NAND2X1_245
*775 OAI21X1_555
*776 AOI21X1_369
*777 NAND2X1_27
*778 NOR2X1_427
*779 OAI21X1_273
*780 NOR2X1_193
*781 MUX2X1_129
*782 OAI21X1_419
*783 OAI21X1_523
*784 AOI21X1_154
*785 _3069_
*786 NOR2X1_74
*787 INVX8_7
*788 AOI22X1_50
*789 AND2X2_75
*790 AOI21X1_236
*791 OAI21X1_569
*792 AOI21X1_204
*793 OAI21X1_561
*794 AOI22X1_58
*795 OAI21X1_123
*796 OAI21X1_502
*797 NAND2X1_110
*798 AOI22X1_19
*799 _168_
*800 NOR2X1_129
*801 AOI21X1_161
*802 NAND2X1_402
*803 NAND2X1_286
*804 INVX4_18
*805 AOI21X1_63
*806 AOI21X1_149
*807 AOI21X1_268
*808 AOI21X1_120
*809 AOI21X1_135
*810 NOR2X1_372
*811 AOI21X1_256
*812 NAND2X1_519
*813 _2535_
*814 INVX8_2
*815 BUFX4_23
*816 BUFX4_20
*817 BUFX4_26
*818 BUFX4_24
*819 BUFX4_22
*820 BUFX4_21
*821 BUFX4_16
*822 BUFX4_19
*823 BUFX4_25
*824 BUFX4_18
*825 BUFX4_17
*826 _2535__bF_buf8
*827 BUFX4_18
*828 OAI21X1_482
*829 NAND2X1_234
*830 OAI21X1_374
*831 NAND2X1_441
*832 MUX2X1_58
*833 MUX2X1_40
*834 MUX2X1_47
*835 NAND2X1_371
*836 NAND2X1_283
*837 NAND2X1_456
*838 NAND2X1_314
*839 _2535__bF_buf7
*840 BUFX4_19
*841 NAND2X1_403
*842 OAI21X1_296
*843 OAI21X1_278
*844 NAND2X1_300
*845 OAI21X1_537
*846 NAND2X1_416
*847 OAI21X1_415
*848 OAI21X1_458
*849 NAND2X1_423
*850 NAND2X1_431
*851 NAND2X1_473
*852 _2535__bF_buf6
*853 BUFX4_20
*854 NAND2X1_361
*855 OAI21X1_352
*856 OAI21X1_281
*857 NAND2X1_304
*858 OAI21X1_411
*859 NAND2X1_109
*860 MUX2X1_31
*861 NAND2X1_347
*862 OAI21X1_255
*863 OAI21X1_60
*864 NAND2X1_166
*865 _2535__bF_buf5
*866 BUFX4_21
*867 NAND2X1_271
*868 NAND2X1_397
*869 AND2X2_23
*870 AND2X2_20
*871 OAI21X1_342
*872 NAND2X1_188
*873 OAI21X1_333
*874 MUX2X1_116
*875 NOR2X1_81
*876 AND2X2_7
*877 OAI21X1_247
*878 _2535__bF_buf4
*879 BUFX4_22
*880 NAND2X1_257
*881 NAND2X1_621
*882 OAI21X1_310
*883 NAND2X1_327
*884 OAI21X1_228
*885 OAI21X1_234
*886 OAI21X1_318
*887 OAI21X1_390
*888 NAND2X1_381
*889 MUX2X1_39
*890 NAND2X1_261
*891 _2535__bF_buf3
*892 BUFX4_23
*893 OAI21X1_340
*894 NAND2X1_390
*895 OAI21X1_375
*896 NAND2X1_154
*897 MUX2X1_26
*898 NAND2X1_338
*899 OAI21X1_325
*900 OAI21X1_351
*901 NAND2X1_359
*902 OAI21X1_431
*903 OAI21X1_109
*904 _2535__bF_buf2
*905 BUFX4_24
*906 OAI21X1_748
*907 MUX2X1_118
*908 NOR2X1_465
*909 NAND2X1_295
*910 OAI21X1_763
*911 MUX2X1_75
*912 NAND2X1_615
*913 OAI21X1_826
*914 MUX2X1_105
*915 OAI21X1_847
*916 NAND2X1_596
*917 _2535__bF_buf1
*918 BUFX4_25
*919 NAND2X1_393
*920 OAI21X1_470
*921 OAI21X1_443
*922 OAI21X1_631
*923 NOR2X1_266
*924 MUX2X1_43
*925 MUX2X1_37
*926 NAND2X1_365
*927 OAI21X1_365
*928 NAND2X1_366
*929 NAND2X1_346
*930 _2535__bF_buf0
*931 BUFX4_26
*932 OR2X2_22
*933 OR2X2_39
*934 NAND2X1_601
*935 NOR2X1_471
*936 OAI21X1_122
*937 OAI21X1_693
*938 NAND3X1_7
*939 NOR2X1_16
*940 NAND2X1_575
*941 NAND3X1_14
*942 NAND2X1_285
*943 operand_B[3_bF_buf8]
*944 BUFX4_34
*945 NAND2X1_411
*946 OAI21X1_368
*947 OAI21X1_213
*948 MUX2X1_102
*949 XOR2X1_4
*950 AOI21X1_86
*951 NAND2X1_612
*952 NAND2X1_172
*953 MUX2X1_38
*954 MUX2X1_63
*955 MUX2X1_52
*956 operand_B[3_bF_buf7]
*957 BUFX4_35
*958 OAI21X1_439
*959 NOR2X1_165
*960 MUX2X1_29
*961 OAI21X1_134
*962 OAI21X1_406
*963 OAI21X1_369
*964 OAI21X1_814
*965 OAI21X1_554
*966 XNOR2X1_17
*967 OAI21X1_746
*968 MUX2X1_67
*969 operand_B[3_bF_buf6]
*970 BUFX4_36
*971 NAND2X1_418
*972 NAND2X1_380
*973 NAND2X1_212
*974 NAND2X1_483
*975 NOR2X1_373
*976 AOI21X1_92
*977 NAND2X1_291
*978 NOR2X1_206
*979 MUX2X1_109
*980 NOR2X1_55
*981 NAND2X1_616
*982 operand_B[3_bF_buf5]
*983 BUFX4_37
*984 OAI21X1_444
*985 NAND2X1_603
*986 OAI21X1_417
*987 NAND2X1_565
*988 NOR2X1_166
*989 OAI21X1_827
*990 NAND2X1_70
*991 OAI21X1_385
*992 OAI21X1_179
*993 OAI21X1_559
*994 OAI21X1_267
*995 operand_B[3_bF_buf4]
*996 BUFX4_38
*997 NAND2X1_333
*998 OAI21X1_769
*999 OAI21X1_418
*1000 NOR2X1_464
*1001 NAND2X1_419
*1002 NAND2X1_117
*1003 NAND2X1_218
*1004 NAND2X1_294
*1005 OAI21X1_387
*1006 NAND2X1_571
*1007 OAI21X1_562
*1008 operand_B[3_bF_buf3]
*1009 BUFX4_39
*1010 OAI21X1_320
*1011 OAI21X1_388
*1012 MUX2X1_95
*1013 MUX2X1_115
*1014 OAI21X1_446
*1015 OAI21X1_74
*1016 NAND2X1_401
*1017 MUX2X1_121
*1018 MUX2X1_54
*1019 OAI21X1_185
*1020 OAI21X1_269
*1021 operand_B[3_bF_buf2]
*1022 BUFX4_40
*1023 NAND2X1_226
*1024 MUX2X1_96
*1025 AOI21X1_329
*1026 NOR2X1_228
*1027 NAND2X1_136
*1028 OR2X2_13
*1029 MUX2X1_55
*1030 OAI21X1_426
*1031 NOR2X1_150
*1032 OAI21X1_391
*1033 NOR2X1_470
*1034 operand_B[3_bF_buf1]
*1035 BUFX4_41
*1036 OAI21X1_193
*1037 OAI21X1_484
*1038 NAND2X1_586
*1039 AOI21X1_354
*1040 AOI21X1_79
*1041 OAI21X1_85
*1042 NOR2X1_222
*1043 OAI21X1_356
*1044 NOR2X1_197
*1045 AOI21X1_235
*1046 OAI21X1_796
*1047 operand_B[3_bF_buf0]
*1048 BUFX4_42
*1049 NOR2X1_159
*1050 OAI21X1_396
*1051 OAI21X1_727
*1052 OAI21X1_852
*1053 MUX2X1_117
*1054 OAI21X1_89
*1055 NOR2X1_177
*1056 OAI21X1_427
*1057 NOR2X1_128
*1058 NOR2X1_267
*1059 AOI22X1_26
*1060 _2461_
*1061 INVX8_1
*1062 BUFX4_74
*1063 BUFX4_67
*1064 BUFX4_69
*1065 BUFX4_70
*1066 BUFX4_75
*1067 BUFX4_73
*1068 BUFX4_71
*1069 BUFX4_72
*1070 BUFX4_68
*1071 BUFX4_76
*1072 BUFX4_66
*1073 _2566_
*1074 INVX8_3
*1075 BUFX4_119
*1076 BUFX4_117
*1077 BUFX4_123
*1078 BUFX4_125
*1079 BUFX4_127
*1080 BUFX4_122
*1081 BUFX4_120
*1082 BUFX4_126
*1083 BUFX4_121
*1084 BUFX4_124
*1085 BUFX4_118
*1086 _2566__bF_buf2
*1087 BUFX4_125
*1088 NAND2X1_602
*1089 NAND2X1_578
*1090 NAND2X1_159
*1091 OAI21X1_212
*1092 OAI21X1_115
*1093 NAND2X1_583
*1094 OAI21X1_737
*1095 NAND2X1_592
*1096 OAI21X1_762
*1097 NAND2X1_600
*1098 MUX2X1_106
*1099 _2566__bF_buf1
*1100 BUFX4_126
*1101 OAI21X1_373
*1102 OAI21X1_630
*1103 NAND2X1_482
*1104 MUX2X1_62
*1105 NAND2X1_455
*1106 MUX2X1_60
*1107 OAI21X1_628
*1108 NAND2X1_510
*1109 OAI21X1_593
*1110 NAND2X1_370
*1111 OAI21X1_558
*1112 _2566__bF_buf0
*1113 BUFX4_127
*1114 OAI21X1_101
*1115 NAND2X1_332
*1116 OAI21X1_319
*1117 OAI21X1_321
*1118 MUX2X1_27
*1119 OAI21X1_761
*1120 NAND2X1_599
*1121 MUX2X1_104
*1122 OAI21X1_724
*1123 OAI21X1_768
*1124 OAI21X1_350
*1125 operand_B[2_bF_buf5]
*1126 BUFX4_132
*1127 OAI21X1_59
*1128 NAND2X1_303
*1129 NOR2X1_127
*1130 OAI21X1_706
*1131 NAND2X1_273
*1132 MUX2X1_51
*1133 NAND2X1_177
*1134 NAND2X1_292
*1135 MUX2X1_103
*1136 NAND2X1_317
*1137 NAND2X1_387
*1138 operand_B[2_bF_buf4]
*1139 BUFX4_133
*1140 OAI21X1_280
*1141 NAND2X1_239
*1142 NAND2X1_595
*1143 NAND2X1_573
*1144 OAI21X1_402
*1145 NAND2X1_493
*1146 NAND2X1_113
*1147 OAI21X1_248
*1148 OAI21X1_133
*1149 OAI21X1_300
*1150 OAI21X1_266
*1151 operand_B[2_bF_buf3]
*1152 BUFX4_134
*1153 NAND2X1_309
*1154 OAI21X1_209
*1155 OAI21X1_747
*1156 OAI21X1_711
*1157 OAI21X1_312
*1158 OAI21X1_66
*1159 OAI21X1_568
*1160 NAND2X1_275
*1161 NAND2X1_293
*1162 NAND2X1_182
*1163 NAND2X1_392
*1164 operand_B[2_bF_buf2]
*1165 BUFX4_135
*1166 OAI21X1_291
*1167 NAND2X1_248
*1168 OAI21X1_314
*1169 MUX2X1_87
*1170 MUX2X1_108
*1171 OAI21X1_414
*1172 NAND2X1_501
*1173 OAI21X1_249
*1174 OAI21X1_268
*1175 OAI21X1_139
*1176 NAND2X1_128
*1177 operand_B[2_bF_buf1]
*1178 BUFX4_136
*1179 OAI21X1_216
*1180 NAND2X1_313
*1181 OAI21X1_578
*1182 AOI21X1_71
*1183 NOR2X1_101
*1184 OAI21X1_79
*1185 OAI21X1_417
*1186 NAND2X1_598
*1187 OAI21X1_315
*1188 NAND2X1_580
*1189 NOR2X1_147
*1190 operand_B[2_bF_buf0]
*1191 BUFX4_137
*1192 NAND2X1_282
*1193 OAI21X1_295
*1194 NAND2X1_251
*1195 OAI21X1_87
*1196 OAI21X1_272
*1197 OAI21X1_368
*1198 OAI21X1_760
*1199 OAI21X1_731
*1200 XOR2X1_7
*1201 OAI21X1_427
*1202 AOI21X1_235
*1203 _2786__bF_buf7
*1204 BUFX4_161
*1205 NAND2X1_477
*1206 NAND2X1_497
*1207 OAI21X1_616
*1208 NOR2X1_80
*1209 OAI21X1_366
*1210 AND2X2_18
*1211 NAND2X1_520
*1212 OAI21X1_420
*1213 NAND2X1_395
*1214 NAND2X1_502
*1215 OAI21X1_887
*1216 _2786__bF_buf6
*1217 BUFX4_162
*1218 NAND2X1_636
*1219 OAI21X1_728
*1220 MUX2X1_124
*1221 NAND2X1_235
*1222 AOI21X1_319
*1223 NOR2X1_442
*1224 AOI21X1_305
*1225 AOI21X1_303
*1226 NAND2X1_330
*1227 NAND2X1_24
*1228 OAI21X1_756
*1229 _2786__bF_buf5
*1230 BUFX4_163
*1231 AOI21X1_212
*1232 OAI21X1_435
*1233 AOI21X1_144
*1234 NAND2X1_367
*1235 OAI21X1_524
*1236 AOI21X1_40
*1237 NOR2X1_204
*1238 AOI21X1_382
*1239 AOI21X1_148
*1240 NOR2X1_361
*1241 OAI21X1_945
*1242 _2786__bF_buf4
*1243 BUFX4_164
*1244 NAND2X1_428
*1245 OAI21X1_186
*1246 AOI21X1_187
*1247 NAND2X1_328
*1248 AOI21X1_196
*1249 NAND2X1_442
*1250 NAND2X1_448
*1251 OAI21X1_237
*1252 OAI21X1_313
*1253 NAND2X1_219
*1254 OAI21X1_894
*1255 _2786__bF_buf3
*1256 BUFX4_165
*1257 AOI21X1_181
*1258 OAI21X1_502
*1259 AOI21X1_412
*1260 OAI21X1_694
*1261 NAND3X1_14
*1262 NAND3X1_56
*1263 OAI21X1_808
*1264 NOR2X1_461
*1265 OAI21X1_848
*1266 MUX2X1_64
*1267 OAI21X1_846
*1268 _2786__bF_buf2
*1269 BUFX4_166
*1270 MUX2X1_49
*1271 OAI21X1_353
*1272 NAND2X1_360
*1273 NAND2X1_301
*1274 MUX2X1_46
*1275 MUX2X1_42
*1276 MUX2X1_44
*1277 OAI21X1_506
*1278 OAI22X1_23
*1279 OAI21X1_631
*1280 OAI21X1_505
*1281 _2786__bF_buf1
*1282 BUFX4_167
*1283 NAND2X1_645
*1284 AOI21X1_227
*1285 AOI21X1_254
*1286 NOR2X1_316
*1287 AOI21X1_241
*1288 OAI21X1_925
*1289 NAND2X1_505
*1290 NAND2X1_503
*1291 AOI21X1_242
*1292 NAND2X1_515
*1293 NAND2X1_480
*1294 _2786__bF_buf0
*1295 BUFX4_168
*1296 OAI21X1_341
*1297 OAI21X1_836
*1298 NOR2X1_458
*1299 MUX2X1_107
*1300 NAND2X1_284
*1301 MUX2X1_25
*1302 OAI21X1_282
*1303 OAI21X1_326
*1304 NOR2X1_300
*1305 NAND2X1_339
*1306 NAND2X1_351
*1307 operand_B[4_bF_buf6]
*1308 BUFX4_180
*1309 OAI21X1_712
*1310 XNOR2X1_21
*1311 NOR2X1_195
*1312 NOR2X1_223
*1313 MUX2X1_34
*1314 AND2X2_69
*1315 AOI21X1_155
*1316 OAI21X1_815
*1317 OAI21X1_221
*1318 OAI21X1_560
*1319 NAND2X1_468
*1320 operand_B[4_bF_buf5]
*1321 BUFX4_181
*1322 OAI21X1_740
*1323 OAI21X1_828
*1324 NAND2X1_630
*1325 NOR2X1_57
*1326 OR2X2_7
*1327 AOI21X1_121
*1328 OAI21X1_528
*1329 OAI21X1_562
*1330 AOI21X1_100
*1331 NOR2X1_239
*1332 AOI21X1_143
*1333 operand_B[4_bF_buf4]
*1334 BUFX4_182
*1335 AOI21X1_310
*1336 OAI21X1_540
*1337 NOR2X1_75
*1338 NAND2X1_412
*1339 NAND2X1_620
*1340 NOR2X1_315
*1341 OAI21X1_882
*1342 AOI21X1_122
*1343 NAND2X1_264
*1344 AOI21X1_101
*1345 AOI21X1_160
*1346 operand_B[4_bF_buf3]
*1347 BUFX4_183
*1348 OAI21X1_753
*1349 NOR2X1_227
*1350 OAI21X1_466
*1351 NAND2X1_276
*1352 OAI21X1_541
*1353 NAND2X1_110
*1354 AOI21X1_354
*1355 OAI21X1_403
*1356 MUX2X1_125
*1357 NOR2X1_176
*1358 NOR2X1_317
*1359 operand_B[4_bF_buf2]
*1360 BUFX4_184
*1361 NOR2X1_142
*1362 AND2X2_25
*1363 NAND2X1_478
*1364 OAI21X1_770
*1365 NAND2X1_623
*1366 NAND2X1_498
*1367 AOI21X1_106
*1368 NOR2X1_205
*1369 NAND2X1_125
*1370 OAI21X1_447
*1371 NAND2X1_643
*1372 operand_B[4_bF_buf1]
*1373 BUFX4_185
*1374 NOR2X1_474
*1375 NOR2X1_145
*1376 AOI21X1_108
*1377 OAI21X1_471
*1378 OAI21X1_86
*1379 AOI21X1_127
*1380 OAI21X1_448
*1381 OAI21X1_908
*1382 MUX2X1_57
*1383 OAI21X1_548
*1384 OAI21X1_785
*1385 operand_B[4_bF_buf0]
*1386 BUFX4_186
*1387 OAI21X1_860
*1388 AOI21X1_78
*1389 NAND2X1_420
*1390 NAND2X1_508
*1391 MUX2X1_126
*1392 OAI21X1_484
*1393 AOI21X1_329
*1394 NAND2X1_479
*1395 AOI21X1_128
*1396 AOI21X1_116
*1397 OAI21X1_90
*1398 operand_B[1_bF_buf9]
*1399 BUFX4_187
*1400 INVX8_1
*1401 NAND2X1_238
*1402 NAND2X1_158
*1403 OAI21X1_684
*1404 NAND2X1_250
*1405 NAND2X1_336
*1406 NAND2X1_116
*1407 OAI21X1_628
*1408 NAND2X1_216
*1409 NAND2X1_179
*1410 NAND2X1_588
*1411 operand_B[1_bF_buf8]
*1412 BUFX4_188
*1413 OAI21X1_207
*1414 NAND2X1_563
*1415 OAI21X1_114
*1416 XOR2X1_3
*1417 OAI21X1_219
*1418 OAI21X1_323
*1419 OAI21X1_65
*1420 AOI21X1_274
*1421 OAI21X1_183
*1422 OAI21X1_136
*1423 OAI21X1_733
*1424 operand_B[1_bF_buf7]
*1425 BUFX4_189
*1426 NAND2X1_220
*1427 NAND2X1_161
*1428 NAND2X1_242
*1429 OAI21X1_687
*1430 NOR2X1_54
*1431 OAI21X1_629
*1432 NAND2X1_378
*1433 NAND2X1_252
*1434 NAND2X1_181
*1435 NAND2X1_130
*1436 NAND2X1_590
*1437 operand_B[1_bF_buf6]
*1438 BUFX4_190
*1439 OAI21X1_187
*1440 OAI21X1_117
*1441 OAI21X1_211
*1442 NAND2X1_67
*1443 OAI21X1_701
*1444 OAI21X1_735
*1445 NAND2X1_557
*1446 OAI21X1_78
*1447 OAI21X1_138
*1448 OAI21X1_383
*1449 OAI21X1_223
*1450 operand_B[1_bF_buf5]
*1451 BUFX4_191
*1452 NAND2X1_222
*1453 NAND2X1_105
*1454 NAND2X1_246
*1455 NAND2X1_591
*1456 NAND2X1_572
*1457 NAND2X1_132
*1458 NAND2X1_184
*1459 OAI21X1_677
*1460 NAND2X1_414
*1461 NAND2X1_258
*1462 NAND2X1_171
*1463 operand_B[1_bF_buf4]
*1464 BUFX4_192
*1465 OAI21X1_56
*1466 OAI21X1_188
*1467 OAI21X1_214
*1468 OAI21X1_736
*1469 OAI21X1_708
*1470 NAND2X1_558
*1471 OAI21X1_81
*1472 OAI21X1_141
*1473 OAI21X1_229
*1474 OAI21X1_441
*1475 OAI21X1_127
*1476 operand_B[1_bF_buf3]
*1477 BUFX4_193
*1478 NAND2X1_107
*1479 NAND2X1_247
*1480 NAND2X1_574
*1481 OAI21X1_678
*1482 NOR2X1_100
*1483 NAND2X1_445
*1484 NAND2X1_174
*1485 NAND2X1_134
*1486 NAND2X1_312
*1487 NAND2X1_232
*1488 MUX2X1_97
*1489 operand_B[1_bF_buf2]
*1490 BUFX4_194
*1491 OAI21X1_215
*1492 NAND2X1_559
*1493 OAI21X1_710
*1494 MUX2X1_98
*1495 OAI21X1_492
*1496 OAI21X1_199
*1497 OAI21X1_294
*1498 NAND2X1_209
*1499 OAI21X1_130
*1500 OAI21X1_83
*1501 OAI21X1_58
*1502 operand_B[1_bF_buf1]
*1503 BUFX4_195
*1504 OAI21X1_297
*1505 NOR2X1_126
*1506 MUX2X1_83
*1507 NAND2X1_593
*1508 OAI21X1_681
*1509 NOR2X1_82
*1510 NAND2X1_176
*1511 OAI21X1_176
*1512 NAND2X1_249
*1513 NAND2X1_111
*1514 NAND2X1_471
*1515 operand_B[1_bF_buf0]
*1516 BUFX4_196
*1517 NAND2X1_561
*1518 NOR2X1_432
*1519 OAI21X1_314
*1520 NOR2X1_131
*1521 OAI21X1_739
*1522 OAI21X1_87
*1523 MUX2X1_23
*1524 OAI21X1_62
*1525 OAI21X1_535
*1526 OAI21X1_218
*1527 OAI21X1_132
*1528 _263_
*1529 NOR2X1_132
*1530 AOI22X1_15
*1531 AOI21X1_93
*1532 AOI22X1_7
*1533 AOI22X1_12
*1534 OAI21X1_428
*1535 AOI21X1_156
*1536 INVX4_20
*1537 AOI21X1_194
*1538 AOI21X1_87
*1539 AOI21X1_270
*1540 AOI21X1_67
*1541 operand_B[3]
*1542 BUFX4_35
*1543 BUFX4_37
*1544 BUFX4_36
*1545 BUFX4_40
*1546 BUFX4_34
*1547 BUFX4_39
*1548 BUFX4_38
*1549 BUFX4_41
*1550 BUFX4_42
*1551 BUFX4_33
*1552 enable_clk_bF_buf7
*1553 BUFX4_97
*1554 OAI21X1_791
*1555 NOR2X1_430
*1556 NOR2X1_434
*1557 OAI21X1_767
*1558 OAI21X1_766
*1559 OAI21X1_755
*1560 NAND3X1_57
*1561 OAI21X1_697
*1562 OAI21X1_776
*1563 OAI21X1_792
*1564 enable_clk_bF_buf6
*1565 BUFX4_98
*1566 OAI21X1_634
*1567 NOR2X1_375
*1568 NOR2X1_369
*1569 NOR2X1_302
*1570 NOR2X1_295
*1571 NOR2X1_353
*1572 NOR2X1_326
*1573 NOR2X1_335
*1574 NOR2X1_336
*1575 NOR2X1_363
*1576 operand_B[2]
*1577 BUFX4_129
*1578 BUFX4_133
*1579 BUFX4_132
*1580 BUFX4_128
*1581 BUFX4_134
*1582 BUFX4_131
*1583 BUFX4_135
*1584 BUFX4_137
*1585 BUFX4_130
*1586 BUFX4_136
*1587 _2786_
*1588 INVX8_5
*1589 BUFX4_162
*1590 BUFX4_164
*1591 BUFX4_163
*1592 BUFX4_161
*1593 BUFX4_159
*1594 BUFX4_165
*1595 BUFX4_160
*1596 BUFX4_166
*1597 BUFX4_168
*1598 BUFX4_167
*1599 operand_B[4]
*1600 BUFX4_178
*1601 BUFX4_181
*1602 BUFX4_179
*1603 BUFX4_180
*1604 BUFX4_182
*1605 BUFX4_184
*1606 BUFX4_186
*1607 BUFX4_177
*1608 BUFX4_185
*1609 BUFX4_183
*1610 operand_B[1]
*1611 BUFX4_193
*1612 BUFX4_188
*1613 BUFX4_187
*1614 BUFX4_191
*1615 BUFX4_194
*1616 BUFX4_192
*1617 BUFX4_195
*1618 BUFX4_190
*1619 BUFX4_189
*1620 BUFX4_196
*1621 _3184_
*1622 INVX4_11
*1623 AOI21X1_168
*1624 OAI21X1_466
*1625 OAI21X1_490
*1626 AOI21X1_203
*1627 OAI21X1_90
*1628 AOI21X1_226
*1629 AOI21X1_253
*1630 AOI21X1_260
*1631 AOI21X1_234
*1632 OAI21X1_523
*1633 clk_bF_buf7
*1634 CLKBUF1_1
*1635 DFFPOSX1_26
*1636 DFFPOSX1_28
*1637 DFFPOSX1_27
*1638 DFFPOSX1_29
*1639 DFFPOSX1_30
*1640 DFFPOSX1_31
*1641 DFFPOSX1_23
*1642 DFFPOSX1_24
*1643 DFFPOSX1_25
*1644 enable_clk_bF_buf5
*1645 BUFX4_99
*1646 OAI21X1_949
*1647 AND2X2_4
*1648 NOR2X1_130
*1649 OAI21X1_942
*1650 OAI21X1_936
*1651 OAI21X1_929
*1652 OAI21X1_919
*1653 NOR2X1_225
*1654 OAI21X1_146
*1655 enable_clk_bF_buf4
*1656 BUFX4_100
*1657 OAI21X1_878
*1658 NOR2X1_469
*1659 OAI21X1_842
*1660 OAI21X1_843
*1661 NOR2X1_445
*1662 OAI21X1_802
*1663 AND2X2_68
*1664 OAI21X1_897
*1665 OAI21X1_885
*1666 enable_clk_bF_buf3
*1667 BUFX4_101
*1668 NOR2X1_172
*1669 NOR2X1_163
*1670 NOR2X1_215
*1671 OAI21X1_305
*1672 NOR2X1_237
*1673 NOR2X1_207
*1674 NOR2X1_236
*1675 NOR2X1_187
*1676 OAI21X1_344
*1677 enable_clk_bF_buf2
*1678 BUFX4_102
*1679 NOR2X1_255
*1680 NOR2X1_214
*1681 OAI21X1_530
*1682 OAI21X1_529
*1683 NOR2X1_240
*1684 NOR2X1_260
*1685 NOR2X1_303
*1686 NOR2X1_289
*1687 NOR2X1_275
*1688 enable_clk_bF_buf1
*1689 BUFX4_103
*1690 NOR2X1_511
*1691 NOR2X1_507
*1692 NOR2X1_92
*1693 NOR2X1_93
*1694 NOR2X1_152
*1695 OAI21X1_306
*1696 NOR2X1_133
*1697 NOR2X1_143
*1698 OAI21X1_345
*1699 enable_clk_bF_buf0
*1700 BUFX4_104
*1701 OAI21X1_920
*1702 OAI21X1_905
*1703 OAI21X1_904
*1704 OR2X2_48
*1705 OAI21X1_803
*1706 INVX8_19
*1707 NOR2X1_480
*1708 OAI21X1_821
*1709 NOR2X1_498
*1710 operand_B[5_bF_buf7]
*1711 BUFX4_109
*1712 NOR2X1_443
*1713 NOR2X1_22
*1714 NOR2X1_466
*1715 OAI21X1_875
*1716 OAI21X1_933
*1717 AOI21X1_229
*1718 NOR2X1_124
*1719 OAI21X1_460
*1720 OAI21X1_695
*1721 operand_B[5_bF_buf6]
*1722 BUFX4_110
*1723 AOI21X1_382
*1724 NOR2X1_447
*1725 OAI21X1_581
*1726 OAI21X1_939
*1727 NOR2X1_125
*1728 INVX8_4
*1729 AOI21X1_346
*1730 AOI21X1_172
*1731 OAI21X1_699
*1732 operand_B[5_bF_buf5]
*1733 BUFX4_111
*1734 OAI21X1_222
*1735 NOR2X1_450
*1736 AOI21X1_412
*1737 OAI21X1_13
*1738 AND2X2_63
*1739 OAI21X1_497
*1740 OAI21X1_715
*1741 OAI21X1_888
*1742 AOI21X1_237
*1743 operand_B[5_bF_buf4]
*1744 BUFX4_112
*1745 OAI21X1_732