* NGSPICE file created from ALU_64bit.ext - technology: scmos

* Black-box entry subcircuit for NAND2X1 abstract view
.subckt NAND2X1 A B gnd Y vdd
.ends

* Black-box entry subcircuit for FILL abstract view
.subckt FILL gnd vdd
.ends

* Black-box entry subcircuit for OAI21X1 abstract view
.subckt OAI21X1 A B C gnd Y vdd
.ends

* Black-box entry subcircuit for AND2X2 abstract view
.subckt AND2X2 A B gnd Y vdd
.ends

* Black-box entry subcircuit for AOI21X1 abstract view
.subckt AOI21X1 A B C gnd Y vdd
.ends

* Black-box entry subcircuit for MUX2X1 abstract view
.subckt MUX2X1 A B S gnd Y vdd
.ends

* Black-box entry subcircuit for INVX1 abstract view
.subckt INVX1 A gnd Y vdd
.ends

* Black-box entry subcircuit for AOI22X1 abstract view
.subckt AOI22X1 A B C D gnd Y vdd
.ends

* Black-box entry subcircuit for OAI22X1 abstract view
.subckt OAI22X1 A B C D gnd Y vdd
.ends

* Black-box entry subcircuit for NOR2X1 abstract view
.subckt NOR2X1 A B gnd Y vdd
.ends

* Black-box entry subcircuit for INVX2 abstract view
.subckt INVX2 A gnd Y vdd
.ends

* Black-box entry subcircuit for BUFX4 abstract view
.subckt BUFX4 A gnd Y vdd
.ends

* Black-box entry subcircuit for OR2X2 abstract view
.subckt OR2X2 A B gnd Y vdd
.ends

* Black-box entry subcircuit for XNOR2X1 abstract view
.subckt XNOR2X1 A B gnd Y vdd
.ends

* Black-box entry subcircuit for INVX8 abstract view
.subckt INVX8 A gnd Y vdd
.ends

* Black-box entry subcircuit for CLKBUF1 abstract view
.subckt CLKBUF1 A gnd Y vdd
.ends

* Black-box entry subcircuit for NAND3X1 abstract view
.subckt NAND3X1 A B C gnd Y vdd
.ends

* Black-box entry subcircuit for XOR2X1 abstract view
.subckt XOR2X1 A B gnd Y vdd
.ends

* Black-box entry subcircuit for DFFPOSX1 abstract view
.subckt DFFPOSX1 Q CLK D gnd vdd
.ends

* Black-box entry subcircuit for INVX4 abstract view
.subckt INVX4 A gnd Y vdd
.ends

* Black-box entry subcircuit for BUFX2 abstract view
.subckt BUFX2 A gnd Y vdd
.ends

* Black-box entry subcircuit for DFFSR abstract view
.subckt DFFSR Q CLK R S D gnd vdd
.ends

.subckt ALU_64bit vdd gnd clk reset operand_A[0] operand_A[1] operand_A[2] operand_A[3]
+ operand_A[4] operand_A[5] operand_A[6] operand_A[7] operand_A[8] operand_A[9] operand_A[10]
+ operand_A[11] operand_A[12] operand_A[13] operand_A[14] operand_A[15] operand_A[16]
+ operand_A[17] operand_A[18] operand_A[19] operand_A[20] operand_A[21] operand_A[22]
+ operand_A[23] operand_A[24] operand_A[25] operand_A[26] operand_A[27] operand_A[28]
+ operand_A[29] operand_A[30] operand_A[31] operand_A[32] operand_A[33] operand_A[34]
+ operand_A[35] operand_A[36] operand_A[37] operand_A[38] operand_A[39] operand_A[40]
+ operand_A[41] operand_A[42] operand_A[43] operand_A[44] operand_A[45] operand_A[46]
+ operand_A[47] operand_A[48] operand_A[49] operand_A[50] operand_A[51] operand_A[52]
+ operand_A[53] operand_A[54] operand_A[55] operand_A[56] operand_A[57] operand_A[58]
+ operand_A[59] operand_A[60] operand_A[61] operand_A[62] operand_A[63] operand_B[0]
+ operand_B[1] operand_B[2] operand_B[3] operand_B[4] operand_B[5] operand_B[6] operand_B[7]
+ operand_B[8] operand_B[9] operand_B[10] operand_B[11] operand_B[12] operand_B[13]
+ operand_B[14] operand_B[15] operand_B[16] operand_B[17] operand_B[18] operand_B[19]
+ operand_B[20] operand_B[21] operand_B[22] operand_B[23] operand_B[24] operand_B[25]
+ operand_B[26] operand_B[27] operand_B[28] operand_B[29] operand_B[30] operand_B[31]
+ operand_B[32] operand_B[33] operand_B[34] operand_B[35] operand_B[36] operand_B[37]
+ operand_B[38] operand_B[39] operand_B[40] operand_B[41] operand_B[42] operand_B[43]
+ operand_B[44] operand_B[45] operand_B[46] operand_B[47] operand_B[48] operand_B[49]
+ operand_B[50] operand_B[51] operand_B[52] operand_B[53] operand_B[54] operand_B[55]
+ operand_B[56] operand_B[57] operand_B[58] operand_B[59] operand_B[60] operand_B[61]
+ operand_B[62] operand_B[63] alu_op[0] alu_op[1] alu_op[2] alu_op[3] result[0] result[1]
+ result[2] result[3] result[4] result[5] result[6] result[7] result[8] result[9]
+ result[10] result[11] result[12] result[13] result[14] result[15] result[16] result[17]
+ result[18] result[19] result[20] result[21] result[22] result[23] result[24] result[25]
+ result[26] result[27] result[28] result[29] result[30] result[31] result[32] result[33]
+ result[34] result[35] result[36] result[37] result[38] result[39] result[40] result[41]
+ result[42] result[43] result[44] result[45] result[46] result[47] result[48] result[49]
+ result[50] result[51] result[52] result[53] result[54] result[55] result[56] result[57]
+ result[58] result[59] result[60] result[61] result[62] result[63] zero_flag carry_flag
+ overflow_flag
XNAND2X1_580 BUFX4_136/Y MUX2X1_110/A gnd OAI21X1_721/C vdd NAND2X1
XNAND2X1_591 BUFX4_191/Y OAI21X1_708/B gnd OAI21X1_736/C vdd NAND2X1
XFILL_17_5_0 gnd vdd FILL
XOAI21X1_360 operand_A[39] INVX2_70/Y NOR2X1_173/Y gnd OAI21X1_361/C vdd OAI21X1
XAND2X2_5 operand_A[30] operand_B[30] gnd AND2X2_5/Y vdd AND2X2
XOAI21X1_382 INVX2_54/Y MUX2X1_3/S OAI21X1_382/C gnd INVX1_164/A vdd OAI21X1
XOAI21X1_371 INVX2_47/Y MUX2X1_7/S OAI21X1_371/C gnd OAI21X1_401/B vdd OAI21X1
XOAI21X1_393 INVX1_169/A OAI21X1_393/B OAI21X1_393/C gnd OAI21X1_393/Y vdd OAI21X1
XFILL_32_3_0 gnd vdd FILL
XAOI21X1_406 BUFX4_79/Y MUX2X1_128/Y INVX8_9/Y gnd OAI22X1_37/C vdd AOI21X1
XFILL_23_3_0 gnd vdd FILL
XMUX2X1_17 operand_A[40] operand_A[39] MUX2X1_6/S gnd MUX2X1_17/Y vdd MUX2X1
XMUX2X1_39 MUX2X1_39/A MUX2X1_39/B BUFX4_22/Y gnd MUX2X1_39/Y vdd MUX2X1
XMUX2X1_28 MUX2X1_28/A MUX2X1_28/B NOR2X1_83/A gnd MUX2X1_28/Y vdd MUX2X1
XFILL_6_4_0 gnd vdd FILL
XFILL_14_3_0 gnd vdd FILL
XINVX1_232 INVX1_232/A gnd INVX1_232/Y vdd INVX1
XINVX1_243 INVX1_243/A gnd INVX1_243/Y vdd INVX1
XINVX1_210 INVX1_210/A gnd INVX1_210/Y vdd INVX1
XINVX1_221 INVX1_221/A gnd INVX1_221/Y vdd INVX1
XOAI21X1_190 MUX2X1_1/Y BUFX4_74/Y OAI21X1_190/C gnd INVX1_90/A vdd OAI21X1
XINVX1_276 BUFX2_26/A gnd INVX1_276/Y vdd INVX1
XINVX1_254 INVX1_254/A gnd INVX1_254/Y vdd INVX1
XNAND2X1_43 INVX2_15/Y INVX1_15/Y gnd NAND2X1_43/Y vdd NAND2X1
XINVX1_298 INVX1_298/A gnd INVX1_298/Y vdd INVX1
XNAND2X1_21 operand_A[6] INVX1_14/Y gnd NAND2X1_23/A vdd NAND2X1
XNAND2X1_32 operand_B[14] INVX2_16/Y gnd INVX2_19/A vdd NAND2X1
XINVX1_287 INVX1_287/A gnd INVX1_287/Y vdd INVX1
XINVX1_265 BUFX2_11/A gnd INVX1_265/Y vdd INVX1
XNAND2X1_10 operand_B[18] INVX4_5/Y gnd NAND2X1_11/B vdd NAND2X1
XNAND2X1_54 operand_B[25] INVX4_8/Y gnd NAND2X1_55/B vdd NAND2X1
XNAND2X1_65 operand_B[23] INVX2_8/Y gnd NAND2X1_65/Y vdd NAND2X1
XNAND2X1_98 BUFX4_120/Y OAI21X1_48/Y gnd OAI21X1_49/C vdd NAND2X1
XNAND2X1_76 XNOR2X1_6/Y XNOR2X1_7/Y gnd NOR2X1_60/A vdd NAND2X1
XNAND2X1_87 BUFX4_67/Y INVX1_91/A gnd OAI21X1_38/C vdd NAND2X1
XAOI21X1_214 AOI21X1_214/A OR2X2_33/Y NAND2X1_485/Y gnd AOI21X1_215/B vdd AOI21X1
XAOI21X1_258 INVX4_24/Y NOR2X1_357/Y BUFX4_30/Y gnd OAI21X1_608/C vdd AOI21X1
XAOI22X1_30 AOI22X1_30/A OAI22X1_26/Y AOI22X1_30/C NOR2X1_281/Y gnd AOI22X1_30/Y vdd
+ AOI22X1
XAOI21X1_247 NOR2X1_345/Y INVX1_246/Y OAI21X1_596/Y gnd OAI21X1_597/C vdd AOI21X1
XAOI21X1_225 INVX1_233/A OAI21X1_500/Y INVX1_236/Y gnd OAI21X1_610/A vdd AOI21X1
XAOI21X1_269 BUFX4_56/Y INVX1_259/A OAI22X1_22/Y gnd NAND2X1_523/B vdd AOI21X1
XAOI21X1_236 INVX8_7/A MUX2X1_57/Y OAI22X1_36/A gnd OAI21X1_588/A vdd AOI21X1
XAOI21X1_203 INVX4_11/Y NAND2X1_477/Y BUFX4_9/Y gnd OAI22X1_32/A vdd AOI21X1
XAOI22X1_41 BUFX4_60/Y XOR2X1_6/Y NAND2X1_42/Y BUFX4_1/Y gnd AOI22X1_41/Y vdd AOI22X1
XAOI22X1_52 BUFX4_148/Y OR2X2_49/B BUFX4_3/Y AOI22X1_52/D gnd AOI22X1_52/Y vdd AOI22X1
XOAI22X1_3 OAI22X1_9/A OR2X2_9/B OAI22X1_3/C OAI22X1_3/D gnd OAI22X1_3/Y vdd OAI22X1
XNAND2X1_409 INVX1_182/A NAND2X1_409/B gnd INVX4_21/A vdd NAND2X1
XNOR2X1_420 NOR2X1_420/A NOR2X1_420/B gnd NOR2X1_421/B vdd NOR2X1
XNOR2X1_431 BUFX4_172/Y INVX1_111/Y gnd NOR2X1_431/Y vdd NOR2X1
XNOR2X1_497 INVX8_7/Y NOR2X1_497/B gnd OAI22X1_33/D vdd NOR2X1
XNOR2X1_442 BUFX4_162/Y NOR2X1_442/B gnd NOR2X1_442/Y vdd NOR2X1
XNOR2X1_453 NOR2X1_453/A NOR2X1_453/B gnd NOR2X1_453/Y vdd NOR2X1
XNOR2X1_464 BUFX4_38/Y NOR2X1_464/B gnd NOR2X1_464/Y vdd NOR2X1
XNOR2X1_475 BUFX4_7/Y NOR2X1_475/B gnd NOR2X1_475/Y vdd NOR2X1
XNOR2X1_486 INVX1_316/Y NOR2X1_486/B gnd NOR2X1_486/Y vdd NOR2X1
XOAI21X1_937 INVX1_326/Y AND2X2_74/A NOR2X1_504/Y gnd OAI21X1_937/Y vdd OAI21X1
XOAI21X1_948 BUFX4_63/Y INVX1_329/Y OAI21X1_948/C gnd NOR2X1_510/B vdd OAI21X1
XOAI21X1_915 OAI21X1_915/A NAND2X1_59/A INVX8_6/A gnd OAI21X1_915/Y vdd OAI21X1
XFILL_20_1_0 gnd vdd FILL
XOAI21X1_926 OAI21X1_926/A BUFX4_169/Y BUFX4_116/Y gnd OAI22X1_36/B vdd OAI21X1
XOAI21X1_904 OAI21X1_904/A NOR2X1_496/Y OR2X2_48/A gnd OAI21X1_905/C vdd OAI21X1
XINVX2_67 operand_B[38] gnd INVX2_67/Y vdd INVX2
XINVX2_78 INVX2_78/A gnd INVX2_78/Y vdd INVX2
XINVX2_56 operand_A[33] gnd INVX2_56/Y vdd INVX2
XINVX2_45 operand_A[32] gnd INVX2_45/Y vdd INVX2
XINVX2_34 INVX2_34/A gnd INVX2_34/Y vdd INVX2
XINVX2_23 operand_B[10] gnd INVX2_23/Y vdd INVX2
XINVX2_12 operand_A[2] gnd INVX2_12/Y vdd INVX2
XFILL_28_2_0 gnd vdd FILL
XINVX2_89 OR2X2_38/A gnd INVX2_89/Y vdd INVX2
XFILL_3_2_0 gnd vdd FILL
XOAI21X1_19 AOI21X1_9/Y OR2X2_1/Y OAI21X1_19/C gnd INVX1_315/A vdd OAI21X1
XFILL_11_1_0 gnd vdd FILL
XFILL_19_2_0 gnd vdd FILL
XNAND2X1_206 INVX4_1/A OAI21X1_94/C gnd NOR2X1_121/B vdd NAND2X1
XNAND2X1_217 MUX2X1_30/S OAI21X1_183/Y gnd OAI21X1_184/C vdd NAND2X1
XNAND2X1_239 BUFX4_133/Y MUX2X1_35/A gnd OAI21X1_209/C vdd NAND2X1
XNAND2X1_228 BUFX4_67/Y INVX1_39/A gnd OAI21X1_195/C vdd NAND2X1
XBUFX4_190 operand_B[1] gnd BUFX4_190/Y vdd BUFX4
XNOR2X1_272 INVX4_23/Y NOR2X1_272/B gnd NOR2X1_273/B vdd NOR2X1
XNOR2X1_261 operand_A[50] operand_B[50] gnd OAI22X1_9/D vdd NOR2X1
XNOR2X1_283 INVX2_53/Y INVX1_218/Y gnd INVX1_222/A vdd NOR2X1
XNOR2X1_250 operand_A[47] INVX1_191/Y gnd NOR2X1_250/Y vdd NOR2X1
XNOR2X1_294 INVX8_7/Y NOR2X1_294/B gnd OAI22X1_32/D vdd NOR2X1
XOAI21X1_701 BUFX4_190/Y operand_A[1] BUFX4_2/Y gnd OAI21X1_702/C vdd OAI21X1
XOAI21X1_712 MUX2X1_95/Y MUX2X1_34/S AND2X2_11/B gnd OAI21X1_714/B vdd OAI21X1
XOAI21X1_723 BUFX4_76/Y MUX2X1_72/Y OAI21X1_723/C gnd INVX1_292/A vdd OAI21X1
XOAI21X1_734 NOR2X1_83/A OAI21X1_734/B OAI21X1_734/C gnd OR2X2_39/A vdd OAI21X1
XOAI21X1_756 BUFX4_162/Y INVX4_7/Y INVX1_297/A gnd INVX1_298/A vdd OAI21X1
XOAI21X1_778 INVX1_297/Y OAI21X1_13/C INVX1_301/Y gnd OAI21X1_781/A vdd OAI21X1
XOAI21X1_745 BUFX4_154/Y NOR2X1_16/Y OAI22X1_7/C gnd OAI21X1_746/C vdd OAI21X1
XOAI21X1_767 BUFX4_97/Y INVX1_266/Y OAI21X1_767/C gnd DFFPOSX1_6/D vdd OAI21X1
XOAI21X1_789 OR2X2_16/A BUFX4_77/Y OAI21X1_789/C gnd OAI21X1_789/Y vdd OAI21X1
XBUFX4_30 INVX8_6/Y gnd BUFX4_30/Y vdd BUFX4
XBUFX4_63 INVX8_17/Y gnd BUFX4_63/Y vdd BUFX4
XBUFX4_52 operand_B[0] gnd MUX2X1_7/S vdd BUFX4
XBUFX4_74 INVX8_1/Y gnd BUFX4_74/Y vdd BUFX4
XBUFX4_41 operand_B[3] gnd BUFX4_41/Y vdd BUFX4
XBUFX4_85 BUFX4_87/A gnd BUFX4_85/Y vdd BUFX4
XBUFX4_96 INVX8_11/Y gnd BUFX4_96/Y vdd BUFX4
XOR2X2_33 OR2X2_33/A OR2X2_33/B gnd OR2X2_33/Y vdd OR2X2
XOR2X2_11 operand_A[37] operand_B[37] gnd OR2X2_11/Y vdd OR2X2
XOR2X2_4 OR2X2_4/A OR2X2_8/B gnd OR2X2_4/Y vdd OR2X2
XOR2X2_44 OR2X2_44/A OR2X2_44/B gnd OR2X2_44/Y vdd OR2X2
XOR2X2_22 OR2X2_22/A OR2X2_39/B gnd OR2X2_22/Y vdd OR2X2
XXNOR2X1_6 operand_A[11] operand_B[11] gnd XNOR2X1_6/Y vdd XNOR2X1
XFILL_26_5_1 gnd vdd FILL
XFILL_25_0_0 gnd vdd FILL
XFILL_1_5_1 gnd vdd FILL
XFILL_0_0_0 gnd vdd FILL
XOAI21X1_531 INVX1_219/Y NOR2X1_286/Y OAI21X1_531/C gnd OAI21X1_531/Y vdd OAI21X1
XOAI21X1_553 INVX1_225/A INVX1_224/A INVX1_226/Y gnd OR2X2_33/A vdd OAI21X1
XOAI21X1_520 INVX1_212/A OAI21X1_520/B AOI22X1_30/A gnd OAI21X1_520/Y vdd OAI21X1
XOAI21X1_564 INVX2_81/A INVX1_232/Y NOR2X1_309/Y gnd OAI21X1_564/Y vdd OAI21X1
XOAI21X1_542 BUFX4_64/Y INVX1_222/Y AOI22X1_22/Y gnd NOR2X1_288/B vdd OAI21X1
XOAI21X1_575 OAI21X1_610/A INVX1_237/Y OAI21X1_584/C gnd NOR2X1_325/B vdd OAI21X1
XINVX8_11 INVX8_11/A gnd INVX8_11/Y vdd INVX8
XINVX1_6 operand_B[16] gnd INVX1_6/Y vdd INVX1
XOAI21X1_597 INVX1_232/A INVX1_247/A OAI21X1_597/C gnd OAI21X1_600/B vdd OAI21X1
XOAI21X1_586 INVX4_9/Y BUFX4_50/Y OAI21X1_64/C gnd MUX2X1_59/B vdd OAI21X1
XNAND2X1_570 BUFX4_72/Y OAI21X1_704/Y gnd OAI21X1_705/C vdd NAND2X1
XNAND2X1_581 BUFX4_71/Y INVX1_284/Y gnd OAI21X1_722/C vdd NAND2X1
XNAND2X1_592 BUFX4_125/Y MUX2X1_114/A gnd OAI21X1_737/C vdd NAND2X1
XFILL_8_1_0 gnd vdd FILL
XFILL_17_5_1 gnd vdd FILL
XFILL_16_0_0 gnd vdd FILL
XOAI21X1_361 INVX2_69/Y operand_B[39] OAI21X1_361/C gnd NOR2X1_184/A vdd OAI21X1
XAND2X2_6 AND2X2_6/A INVX1_75/A gnd AND2X2_6/Y vdd AND2X2
XOAI21X1_394 INVX1_162/A AND2X2_16/B OAI21X1_394/C gnd NOR2X1_203/A vdd OAI21X1
XOAI21X1_372 INVX1_159/Y BUFX4_75/Y OAI21X1_372/C gnd OAI21X1_372/Y vdd OAI21X1
XOAI21X1_383 INVX1_164/Y BUFX4_190/Y OAI21X1_383/C gnd INVX1_165/A vdd OAI21X1
XOAI21X1_350 INVX1_121/Y MUX2X1_27/S OAI21X1_350/C gnd INVX1_196/A vdd OAI21X1
XFILL_32_3_1 gnd vdd FILL
XAOI21X1_407 BUFX4_141/Y XNOR2X1_48/Y NAND2X1_649/Y gnd AOI22X1_57/C vdd AOI21X1
XFILL_23_3_1 gnd vdd FILL
XMUX2X1_18 operand_A[44] operand_A[43] MUX2X1_3/S gnd MUX2X1_18/Y vdd MUX2X1
XMUX2X1_29 MUX2X1_29/A MUX2X1_29/B BUFX4_35/Y gnd MUX2X1_29/Y vdd MUX2X1
XFILL_6_4_1 gnd vdd FILL
XFILL_14_3_1 gnd vdd FILL
XINVX1_222 INVX1_222/A gnd INVX1_222/Y vdd INVX1
XINVX1_244 INVX1_244/A gnd INVX1_244/Y vdd INVX1
XINVX1_233 INVX1_233/A gnd INVX1_233/Y vdd INVX1
XINVX1_211 operand_A[51] gnd INVX1_211/Y vdd INVX1
XINVX1_200 INVX1_200/A gnd INVX1_200/Y vdd INVX1
XINVX1_255 INVX1_255/A gnd INVX1_255/Y vdd INVX1
XAOI22X1_1 AOI22X1_1/A AOI22X1_1/B INVX1_32/Y NOR2X1_67/Y gnd AOI22X1_1/Y vdd AOI22X1
XOAI21X1_180 BUFX4_71/Y MUX2X1_9/Y OAI21X1_180/C gnd MUX2X1_24/B vdd OAI21X1
XINVX1_277 BUFX2_25/A gnd INVX1_277/Y vdd INVX1
XOAI21X1_191 INVX1_44/Y BUFX4_76/Y OAI21X1_191/C gnd OAI21X1_290/B vdd OAI21X1
XINVX1_266 BUFX2_8/A gnd INVX1_266/Y vdd INVX1
XNAND2X1_44 operand_B[26] operand_A[26] gnd OAI21X1_20/C vdd NAND2X1
XNAND2X1_55 NAND2X1_55/A NAND2X1_55/B gnd NAND2X1_59/A vdd NAND2X1
XNAND2X1_66 INVX1_28/Y NAND2X1_66/B gnd NAND2X1_66/Y vdd NAND2X1
XNAND2X1_77 INVX2_17/A INVX1_17/A gnd NOR2X1_60/B vdd NAND2X1
XNAND2X1_22 operand_B[6] INVX2_13/Y gnd INVX1_281/A vdd NAND2X1
XINVX1_288 INVX1_288/A gnd INVX1_288/Y vdd INVX1
XNAND2X1_33 INVX2_18/A INVX2_19/A gnd OR2X2_45/B vdd NAND2X1
XINVX1_299 INVX1_299/A gnd INVX1_299/Y vdd INVX1
XNAND2X1_11 NAND2X1_9/Y NAND2X1_11/B gnd OR2X2_47/B vdd NAND2X1
XNAND2X1_88 MUX2X1_1/S operand_A[19] gnd OAI21X1_39/C vdd NAND2X1
XNAND2X1_99 BUFX4_17/Y INVX1_42/Y gnd OAI21X1_50/C vdd NAND2X1
XAOI21X1_215 OAI21X1_552/Y AOI21X1_215/B NOR2X1_302/Y gnd DFFPOSX1_56/D vdd AOI21X1
XAOI21X1_248 OAI21X1_472/C OAI21X1_598/Y INVX1_231/A gnd OAI21X1_599/A vdd AOI21X1
XAOI22X1_20 BUFX4_153/Y NOR2X1_258/B BUFX4_58/Y INVX1_204/A gnd AND2X2_29/A vdd AOI22X1
XAOI21X1_259 INVX2_89/Y OAI21X1_610/Y NAND2X1_516/Y gnd AOI21X1_262/A vdd AOI21X1
XAOI21X1_237 BUFX4_111/Y OAI22X1_36/D OAI21X1_587/Y gnd OAI21X1_588/C vdd AOI21X1
XAOI22X1_53 BUFX4_148/Y NOR2X1_11/Y AOI21X1_4/A BUFX4_3/Y gnd NAND3X1_71/A vdd AOI22X1
XAOI21X1_226 INVX4_11/Y NAND2X1_497/Y BUFX4_9/Y gnd OAI22X1_35/A vdd AOI21X1
XAOI21X1_204 INVX8_7/A OAI21X1_548/Y OAI22X1_32/A gnd OAI21X1_551/A vdd AOI21X1
XAOI22X1_31 BUFX4_12/Y INVX1_269/Y AOI22X1_31/C AOI22X1_31/D gnd DFFPOSX1_1/D vdd
+ AOI22X1
XAOI22X1_42 BUFX4_15/Y INVX1_262/Y AND2X2_60/Y AOI22X1_42/D gnd AOI22X1_42/Y vdd AOI22X1
XOAI22X1_4 OAI22X1_9/A INVX4_19/Y OAI22X1_4/C INVX8_15/Y gnd OAI22X1_4/Y vdd OAI22X1
XNOR2X1_410 XOR2X1_3/Y NOR2X1_410/B gnd AND2X2_46/A vdd NOR2X1
XNOR2X1_421 NOR2X1_421/A NOR2X1_421/B gnd NOR2X1_421/Y vdd NOR2X1
XOAI21X1_916 OAI21X1_34/A NAND2X1_59/B NAND2X1_58/A gnd XNOR2X1_47/A vdd OAI21X1
XNOR2X1_498 OR2X2_48/A BUFX2_27/A gnd NOR2X1_498/Y vdd NOR2X1
XOAI21X1_905 OR2X2_48/A INVX1_277/Y OAI21X1_905/C gnd OAI21X1_905/Y vdd OAI21X1
XNOR2X1_487 BUFX4_7/Y NOR2X1_487/B gnd OAI22X1_29/A vdd NOR2X1
XNOR2X1_432 MUX2X1_23/S NOR2X1_432/B gnd NOR2X1_432/Y vdd NOR2X1
XNOR2X1_476 NOR2X1_40/Y INVX1_313/A gnd NOR2X1_476/Y vdd NOR2X1
XNOR2X1_443 NOR2X1_22/A operand_A[5] gnd INVX1_301/A vdd NOR2X1
XNOR2X1_454 NOR2X1_454/A NOR2X1_454/B gnd AND2X2_58/B vdd NOR2X1
XNOR2X1_465 BUFX4_24/Y NOR2X1_465/B gnd NOR2X1_465/Y vdd NOR2X1
XOAI21X1_949 BUFX4_158/Y NOR2X1_3/A BUFX4_99/Y gnd NOR2X1_510/A vdd OAI21X1
XOAI21X1_938 OAI21X1_34/Y NOR2X1_3/B BUFX4_141/Y gnd OAI21X1_938/Y vdd OAI21X1
XOAI21X1_927 operand_B[26] operand_A[26] BUFX4_6/Y gnd OAI21X1_928/C vdd OAI21X1
XFILL_20_1_1 gnd vdd FILL
XINVX2_68 OR2X2_12/B gnd INVX2_68/Y vdd INVX2
XINVX2_79 INVX2_79/A gnd OR2X2_33/B vdd INVX2
XINVX2_35 operand_A[30] gnd INVX2_35/Y vdd INVX2
XINVX2_46 operand_A[44] gnd INVX2_46/Y vdd INVX2
XINVX2_57 INVX2_57/A gnd INVX2_57/Y vdd INVX2
XINVX2_24 operand_A[9] gnd INVX2_24/Y vdd INVX2
XINVX2_13 operand_A[6] gnd INVX2_13/Y vdd INVX2
XFILL_28_2_1 gnd vdd FILL
XFILL_3_2_1 gnd vdd FILL
XFILL_11_1_1 gnd vdd FILL
XFILL_19_2_1 gnd vdd FILL
XNAND2X1_207 INVX1_33/A NOR2X1_121/Y gnd NOR2X1_122/B vdd NAND2X1
XNAND2X1_218 BUFX4_38/Y INVX1_88/Y gnd OAI21X1_185/C vdd NAND2X1
XNAND2X1_229 BUFX4_119/Y INVX1_128/A gnd OAI21X1_196/C vdd NAND2X1
XNOR2X1_240 BUFX4_102/Y BUFX2_51/A gnd NOR2X1_240/Y vdd NOR2X1
XNOR2X1_251 OR2X2_30/Y NOR2X1_251/B gnd NOR2X1_251/Y vdd NOR2X1
XBUFX4_191 operand_B[1] gnd BUFX4_191/Y vdd BUFX4
XBUFX4_180 operand_B[4] gnd MUX2X1_34/S vdd BUFX4
XNOR2X1_295 BUFX4_98/Y OR2X2_37/A gnd NOR2X1_295/Y vdd NOR2X1
XNOR2X1_273 NOR2X1_273/A NOR2X1_273/B gnd NOR2X1_273/Y vdd NOR2X1
XNOR2X1_284 operand_A[53] operand_B[53] gnd INVX1_223/A vdd NOR2X1
XNOR2X1_262 INVX2_41/Y INVX2_76/Y gnd NOR2X1_273/A vdd NOR2X1
XOAI21X1_735 BUFX4_190/Y MUX2X1_79/Y OAI21X1_735/C gnd INVX1_295/A vdd OAI21X1
XOAI21X1_757 XNOR2X1_20/Y INVX1_298/Y OAI21X1_757/C gnd NAND3X1_61/C vdd OAI21X1
XOAI21X1_713 XOR2X1_3/Y NOR2X1_112/Y OAI21X1_713/C gnd OAI21X1_714/C vdd OAI21X1
XOAI21X1_702 BUFX4_62/Y INVX1_289/Y OAI21X1_702/C gnd OAI21X1_702/Y vdd OAI21X1
XOAI21X1_746 BUFX4_35/Y operand_A[3] OAI21X1_746/C gnd OAI21X1_746/Y vdd OAI21X1
XOAI21X1_724 MUX2X1_27/S MUX2X1_111/A OAI21X1_724/C gnd OAI21X1_727/A vdd OAI21X1
XOAI21X1_779 OAI21X1_781/A XNOR2X1_19/Y BUFX4_105/Y gnd OAI21X1_779/Y vdd OAI21X1
XOAI21X1_768 INVX1_292/Y MUX2X1_27/S OAI21X1_768/C gnd OAI21X1_852/B vdd OAI21X1
XBUFX4_20 INVX8_2/Y gnd BUFX4_20/Y vdd BUFX4
XBUFX4_64 INVX8_17/Y gnd BUFX4_64/Y vdd BUFX4
XBUFX4_75 INVX8_1/Y gnd BUFX4_75/Y vdd BUFX4
XBUFX4_31 INVX8_6/Y gnd BUFX4_31/Y vdd BUFX4
XBUFX4_53 operand_B[0] gnd BUFX4_53/Y vdd BUFX4
XBUFX4_42 operand_B[3] gnd BUFX4_42/Y vdd BUFX4
XBUFX4_86 BUFX4_87/A gnd BUFX4_86/Y vdd BUFX4
XBUFX4_97 DFFSR_1/Q gnd BUFX4_97/Y vdd BUFX4
XFILL_10_1 gnd vdd FILL
XOR2X2_12 OR2X2_12/A OR2X2_12/B gnd OR2X2_12/Y vdd OR2X2
XOR2X2_34 OR2X2_34/A OR2X2_34/B gnd OR2X2_34/Y vdd OR2X2
XOR2X2_23 OR2X2_23/A OR2X2_23/B gnd OR2X2_23/Y vdd OR2X2
XOR2X2_45 OR2X2_45/A OR2X2_45/B gnd OR2X2_45/Y vdd OR2X2
XOR2X2_5 OR2X2_5/A OR2X2_5/B gnd OR2X2_5/Y vdd OR2X2
XXNOR2X1_7 operand_B[10] operand_A[10] gnd XNOR2X1_7/Y vdd XNOR2X1
XFILL_25_0_1 gnd vdd FILL
XINVX8_12 INVX8_12/A gnd BUFX4_9/A vdd INVX8
XFILL_0_0_1 gnd vdd FILL
XOAI21X1_543 INVX1_216/A NOR2X1_307/B OAI21X1_563/A gnd OAI21X1_544/B vdd OAI21X1
XOAI21X1_532 OAI22X1_11/D AND2X2_32/Y OAI21X1_532/C gnd OAI21X1_533/C vdd OAI21X1
XOAI21X1_510 XNOR2X1_37/A INVX4_23/A OAI21X1_520/B gnd XNOR2X1_38/A vdd OAI21X1
XOAI21X1_521 OAI21X1_565/A NOR2X1_311/B NOR2X1_312/B gnd OAI21X1_532/C vdd OAI21X1
XOAI21X1_565 OAI21X1_565/A INVX1_233/Y INVX1_236/A gnd OAI21X1_566/B vdd OAI21X1
XOAI21X1_598 AOI21X1_50/Y AOI21X1_47/C NOR2X1_346/Y gnd OAI21X1_598/Y vdd OAI21X1
XOAI21X1_576 INVX4_13/Y MUX2X1_1/S OAI21X1_576/C gnd INVX1_238/A vdd OAI21X1
XOAI21X1_587 OAI21X1_926/A BUFX4_174/Y AND2X2_42/Y gnd OAI21X1_587/Y vdd OAI21X1
XOAI21X1_554 INVX1_66/Y BUFX4_35/Y OR2X2_43/B gnd OAI21X1_555/C vdd OAI21X1
XINVX1_7 operand_B[19] gnd INVX1_7/Y vdd INVX1
XFILL_8_1_1 gnd vdd FILL
XNAND2X1_560 MUX2X1_7/S operand_A[9] gnd OAI21X1_682/C vdd NAND2X1
XNAND2X1_593 NOR2X1_82/A OAI21X1_710/B gnd OAI21X1_739/C vdd NAND2X1
XNAND2X1_582 BUFX4_76/Y OAI21X1_680/Y gnd OAI21X1_723/C vdd NAND2X1
XNAND2X1_571 BUFX4_38/Y MUX2X1_118/A gnd NAND2X1_571/Y vdd NAND2X1
XFILL_16_0_1 gnd vdd FILL
XOAI21X1_395 AND2X2_17/Y NOR2X1_203/A INVX1_169/Y gnd AND2X2_19/A vdd OAI21X1
XOAI21X1_362 INVX1_126/Y INVX1_157/Y AND2X2_27/A gnd OAI21X1_362/Y vdd OAI21X1
XAND2X2_7 AND2X2_7/A BUFX4_21/Y gnd AND2X2_7/Y vdd AND2X2
XOAI21X1_384 INVX1_165/Y NOR2X1_83/A OAI21X1_384/C gnd MUX2X1_43/B vdd OAI21X1
XOAI21X1_373 INVX1_131/Y MUX2X1_62/S OAI21X1_373/C gnd INVX1_160/A vdd OAI21X1
XOAI21X1_340 INVX1_46/Y BUFX4_23/Y OAI21X1_340/C gnd INVX1_147/A vdd OAI21X1
XOAI21X1_351 INVX1_64/Y BUFX4_23/Y OAI21X1_351/C gnd NOR2X1_300/B vdd OAI21X1
XNAND2X1_390 BUFX4_23/Y INVX1_120/Y gnd OAI21X1_411/C vdd NAND2X1
XAOI21X1_408 NOR2X1_3/B OAI21X1_34/Y OAI21X1_938/Y gnd NOR2X1_506/A vdd AOI21X1
XMUX2X1_19 operand_A[36] operand_A[35] MUX2X1_4/S gnd MUX2X1_19/Y vdd MUX2X1
XAOI22X1_2 BUFX4_148/Y AND2X2_5/Y INVX4_1/Y BUFX4_57/Y gnd NAND3X1_3/B vdd AOI22X1
XINVX1_212 INVX1_212/A gnd INVX1_212/Y vdd INVX1
XINVX1_223 INVX1_223/A gnd INVX1_223/Y vdd INVX1
XINVX1_201 INVX1_201/A gnd INVX1_201/Y vdd INVX1
XINVX1_256 operand_B[62] gnd INVX1_256/Y vdd INVX1
XINVX1_245 operand_B[60] gnd INVX1_245/Y vdd INVX1
XOAI21X1_170 INVX2_29/Y operand_A[27] AOI22X1_1/B gnd OAI21X1_171/C vdd OAI21X1
XOAI21X1_181 BUFX4_72/Y MUX2X1_6/Y OAI21X1_181/C gnd MUX2X1_24/A vdd OAI21X1
XINVX1_234 INVX1_234/A gnd INVX1_234/Y vdd INVX1
XINVX1_278 INVX1_278/A gnd INVX1_278/Y vdd INVX1
XOAI21X1_192 INVX1_90/Y MUX2X1_2/S OAI21X1_192/C gnd OAI21X1_369/A vdd OAI21X1
XINVX1_289 NOR2X1_15/Y gnd INVX1_289/Y vdd INVX1
XINVX1_267 BUFX2_7/A gnd INVX1_267/Y vdd INVX1
XNAND2X1_45 operand_B[27] INVX2_30/Y gnd AOI22X1_1/A vdd NAND2X1
XNAND2X1_56 operand_A[24] INVX1_24/Y gnd NAND2X1_58/A vdd NAND2X1
XNAND2X1_78 NOR2X1_59/Y NOR2X1_60/Y gnd OAI21X1_32/B vdd NAND2X1
XNAND2X1_34 operand_A[13] INVX1_18/Y gnd NAND2X1_36/A vdd NAND2X1
XNAND2X1_23 NAND2X1_23/A INVX1_281/A gnd OAI21X1_10/C vdd NAND2X1
XNAND2X1_67 BUFX4_190/Y INVX2_9/Y gnd INVX1_279/A vdd NAND2X1
XNAND2X1_89 MUX2X1_6/S operand_A[21] gnd OAI21X1_40/C vdd NAND2X1
XNAND2X1_12 XOR2X1_2/Y OR2X2_47/B gnd OAI21X1_3/A vdd NAND2X1
XAOI21X1_216 AND2X2_33/Y INVX1_229/Y AND2X2_35/Y gnd AND2X2_36/B vdd AOI21X1
XAOI21X1_205 BUFX4_149/Y AND2X2_33/Y OAI22X1_13/Y gnd AND2X2_34/A vdd AOI21X1
XAOI21X1_238 BUFX4_143/Y NOR2X1_332/Y OAI21X1_588/Y gnd AOI21X1_239/B vdd AOI21X1
XAOI21X1_249 OAI21X1_597/C OAI21X1_599/Y INVX2_88/Y gnd NOR2X1_357/B vdd AOI21X1
XAOI22X1_21 BUFX4_56/Y INVX1_212/A BUFX4_4/Y INVX1_214/Y gnd NAND3X1_30/B vdd AOI22X1
XAOI22X1_10 BUFX4_153/Y NOR2X1_190/B BUFX4_58/Y INVX1_162/A gnd AOI22X1_10/Y vdd AOI22X1
XAOI22X1_54 BUFX4_13/Y INVX1_276/Y AOI22X1_54/C AOI22X1_54/D gnd AOI22X1_54/Y vdd
+ AOI22X1
XAOI21X1_227 BUFX4_167/Y MUX2X1_55/Y INVX8_7/Y gnd AOI21X1_228/B vdd AOI21X1
XAOI22X1_43 BUFX4_60/Y XNOR2X1_41/B INVX1_21/Y BUFX4_1/Y gnd AOI22X1_43/Y vdd AOI22X1
XAOI22X1_32 BUFX4_12/Y INVX1_268/Y AND2X2_53/Y NOR2X1_429/Y gnd DFFPOSX1_2/D vdd AOI22X1
XOAI22X1_5 BUFX4_61/Y INVX2_63/A OAI22X1_9/C OAI22X1_5/D gnd OAI22X1_5/Y vdd OAI22X1
XNOR2X1_411 INVX1_248/A OR2X2_38/Y gnd NOR2X1_411/Y vdd NOR2X1
XNOR2X1_422 operand_A[46] INVX1_184/Y gnd NOR2X1_422/Y vdd NOR2X1
XNOR2X1_433 NOR2X1_433/A NOR2X1_433/B gnd NOR2X1_433/Y vdd NOR2X1
XNOR2X1_400 NOR2X1_400/A NOR2X1_400/B gnd NOR2X1_400/Y vdd NOR2X1
XOAI21X1_928 BUFX4_63/Y OAI21X1_20/C OAI21X1_928/C gnd NOR2X1_500/B vdd OAI21X1
XNOR2X1_499 NOR2X1_499/A NOR2X1_499/B gnd NOR2X1_499/Y vdd NOR2X1
XOAI21X1_939 OAI21X1_939/A BUFX4_169/Y INVX8_4/A gnd OAI22X1_38/B vdd OAI21X1
XOAI21X1_906 operand_B[22] INVX4_3/Y OAI21X1_906/C gnd OAI21X1_907/B vdd OAI21X1
XOAI21X1_917 OAI21X1_917/A BUFX4_169/Y OR2X2_40/B gnd OAI22X1_35/B vdd OAI21X1
XNOR2X1_477 BUFX4_83/Y OAI22X1_8/B gnd NOR2X1_477/Y vdd NOR2X1
XNOR2X1_455 BUFX4_179/Y NOR2X1_455/B gnd NOR2X1_456/B vdd NOR2X1
XNOR2X1_444 INVX8_15/Y NOR2X1_444/B gnd NOR2X1_444/Y vdd NOR2X1
XNOR2X1_466 NOR2X1_22/A AND2X2_61/Y gnd NOR2X1_466/Y vdd NOR2X1
XNOR2X1_488 NOR2X1_488/A NOR2X1_488/B gnd NOR2X1_488/Y vdd NOR2X1
XINVX2_69 operand_A[39] gnd INVX2_69/Y vdd INVX2
XINVX2_47 operand_A[40] gnd INVX2_47/Y vdd INVX2
XINVX2_36 INVX2_36/A gnd INVX2_36/Y vdd INVX2
XINVX2_25 operand_B[9] gnd INVX2_25/Y vdd INVX2
XINVX2_58 INVX2_58/A gnd INVX2_58/Y vdd INVX2
XINVX2_14 operand_A[5] gnd INVX2_14/Y vdd INVX2
XFILL_30_4_0 gnd vdd FILL
XNAND2X1_208 BUFX4_68/Y OAI21X1_69/B gnd OAI21X1_175/C vdd NAND2X1
XNAND2X1_219 BUFX4_164/Y MUX2X1_123/A gnd OAI21X1_186/C vdd NAND2X1
XNOR2X1_263 OAI22X1_9/D NOR2X1_273/A gnd INVX4_23/A vdd NOR2X1
XNOR2X1_285 INVX1_223/A INVX1_222/A gnd INVX1_219/A vdd NOR2X1
XNOR2X1_241 operand_A[48] operand_B[48] gnd INVX1_202/A vdd NOR2X1
XNOR2X1_230 operand_A[46] operand_B[46] gnd NOR2X1_231/A vdd NOR2X1
XBUFX4_170 INVX8_10/Y gnd NOR2X1_87/B vdd BUFX4
XNOR2X1_252 NOR2X1_87/B NOR2X1_252/B gnd NOR2X1_253/A vdd NOR2X1
XBUFX4_192 operand_B[1] gnd BUFX4_192/Y vdd BUFX4
XBUFX4_181 operand_B[4] gnd OR2X2_7/B vdd BUFX4
XNOR2X1_274 INVX8_7/Y MUX2X1_46/Y gnd NOR2X1_274/Y vdd NOR2X1
XNOR2X1_296 operand_A[55] operand_B[55] gnd INVX1_229/A vdd NOR2X1
XFILL_21_4_0 gnd vdd FILL
XOAI21X1_703 BUFX4_72/Y OAI21X1_703/B OAI21X1_703/C gnd OAI21X1_703/Y vdd OAI21X1
XOAI21X1_725 BUFX4_72/Y MUX2X1_69/A OAI21X1_725/C gnd MUX2X1_111/B vdd OAI21X1
XOAI21X1_758 AOI21X1_51/Y INVX2_92/Y NAND2X1_26/A gnd OAI21X1_759/B vdd OAI21X1
XOAI21X1_747 BUFX4_134/Y MUX2X1_76/Y OAI21X1_747/C gnd OAI21X1_747/Y vdd OAI21X1
XOAI21X1_769 BUFX4_38/Y MUX2X1_110/Y OAI21X1_769/C gnd OAI21X1_770/B vdd OAI21X1
XOAI21X1_714 OAI21X1_714/A OAI21X1_714/B OAI21X1_714/C gnd NOR2X1_429/B vdd OAI21X1
XOAI21X1_736 BUFX4_192/Y MUX2X1_80/Y OAI21X1_736/C gnd MUX2X1_114/A vdd OAI21X1
XFILL_29_5_0 gnd vdd FILL
XFILL_4_5_0 gnd vdd FILL
XFILL_12_4_0 gnd vdd FILL
XINVX8_1 INVX8_1/A gnd INVX8_1/Y vdd INVX8
XBUFX4_32 INVX8_6/Y gnd BUFX4_32/Y vdd BUFX4
XBUFX4_10 BUFX4_9/A gnd BUFX4_10/Y vdd BUFX4
XBUFX4_21 INVX8_2/Y gnd BUFX4_21/Y vdd BUFX4
XBUFX4_43 operand_B[0] gnd BUFX4_43/Y vdd BUFX4
XBUFX4_98 DFFSR_1/Q gnd BUFX4_98/Y vdd BUFX4
XBUFX4_65 INVX8_17/Y gnd BUFX4_65/Y vdd BUFX4
XBUFX4_54 operand_B[0] gnd MUX2X1_3/S vdd BUFX4
XBUFX4_76 INVX8_1/Y gnd BUFX4_76/Y vdd BUFX4
XBUFX4_87 BUFX4_87/A gnd INVX8_15/A vdd BUFX4
XOR2X2_6 operand_A[33] operand_B[33] gnd OR2X2_6/Y vdd OR2X2
XOR2X2_24 OR2X2_24/A OR2X2_24/B gnd OR2X2_24/Y vdd OR2X2
XOR2X2_35 OR2X2_35/A OR2X2_8/B gnd OR2X2_35/Y vdd OR2X2
XOR2X2_13 OR2X2_13/A OR2X2_13/B gnd OR2X2_13/Y vdd OR2X2
XXNOR2X1_8 operand_A[9] operand_B[9] gnd INVX2_17/A vdd XNOR2X1
XOR2X2_46 OR2X2_46/A OR2X2_46/B gnd OR2X2_46/Y vdd OR2X2
XINVX8_13 OR2X2_8/B gnd INVX8_13/Y vdd INVX8
XOAI21X1_544 INVX1_224/A OAI21X1_544/B OAI21X1_544/C gnd OAI21X1_544/Y vdd OAI21X1
XOAI21X1_522 INVX2_78/Y OAI21X1_532/C OAI21X1_522/C gnd NAND3X1_31/A vdd OAI21X1
XOAI21X1_533 INVX2_40/Y operand_B[52] OAI21X1_533/C gnd XNOR2X1_39/A vdd OAI21X1
XOAI21X1_599 OAI21X1_599/A OAI21X1_599/B INVX1_247/Y gnd OAI21X1_599/Y vdd OAI21X1
XOAI21X1_566 INVX2_81/Y OAI21X1_566/B OAI21X1_566/C gnd AND2X2_38/A vdd OAI21X1
XOAI21X1_500 AOI21X1_62/B INVX1_199/A OAI21X1_500/C gnd OAI21X1_500/Y vdd OAI21X1
XOAI21X1_511 INVX1_211/Y MUX2X1_3/S OAI21X1_511/C gnd OAI21X1_511/Y vdd OAI21X1
XOAI21X1_577 BUFX4_70/Y OAI21X1_577/B OAI21X1_577/C gnd MUX2X1_62/B vdd OAI21X1
XOAI21X1_588 OAI21X1_588/A BUFX4_112/Y OAI21X1_588/C gnd OAI21X1_588/Y vdd OAI21X1
XINVX1_8 operand_B[23] gnd INVX1_8/Y vdd INVX1
XOAI21X1_555 INVX1_150/A BUFX4_179/Y OAI21X1_555/C gnd NOR2X1_497/B vdd OAI21X1
XNAND2X1_550 operand_B[32] INVX2_45/Y gnd OAI21X1_666/B vdd NAND2X1
XNAND2X1_561 MUX2X1_23/S OAI21X1_683/Y gnd OAI21X1_684/C vdd NAND2X1
XNAND2X1_572 BUFX4_191/Y MUX2X1_79/Y gnd OAI21X1_708/C vdd NAND2X1
XNAND2X1_594 NAND2X1_594/A OAI21X1_746/Y gnd NOR2X1_437/A vdd NAND2X1
XNAND2X1_583 BUFX4_125/Y INVX1_292/Y gnd OAI21X1_724/C vdd NAND2X1
XFILL_9_1 gnd vdd FILL
XFILL_26_3_0 gnd vdd FILL
XFILL_1_3_0 gnd vdd FILL
XOAI21X1_330 OAI22X1_5/D INVX2_63/Y INVX2_65/A gnd NOR2X1_420/A vdd OAI21X1
XOAI21X1_341 INVX1_147/Y MUX2X1_25/S OAI21X1_341/C gnd OAI22X1_6/C vdd OAI21X1
XOAI21X1_363 INVX1_154/A INVX1_163/A OAI21X1_363/C gnd OAI21X1_364/C vdd OAI21X1
XAND2X2_8 AND2X2_8/A INVX8_13/Y gnd AND2X2_8/Y vdd AND2X2
XOAI21X1_374 BUFX4_18/Y OAI21X1_374/B OAI21X1_374/C gnd NOR2X1_316/B vdd OAI21X1
XOAI21X1_352 INVX1_149/Y BUFX4_20/Y OAI21X1_352/C gnd INVX1_150/A vdd OAI21X1
XOAI21X1_396 MUX2X1_2/B BUFX4_131/Y BUFX4_42/Y gnd OAI21X1_397/C vdd OAI21X1
XOAI21X1_385 BUFX4_37/Y MUX2X1_26/B OAI21X1_385/C gnd OAI22X1_15/B vdd OAI21X1
XNAND2X1_391 BUFX4_69/Y OAI21X1_412/Y gnd OAI21X1_413/C vdd NAND2X1
XNAND2X1_380 BUFX4_36/Y OAI21X1_213/B gnd OAI21X1_385/C vdd NAND2X1
XFILL_9_4_0 gnd vdd FILL
XFILL_17_3_0 gnd vdd FILL
XAOI21X1_409 BUFX4_80/Y MUX2X1_129/Y INVX8_9/Y gnd OAI22X1_38/D vdd AOI21X1
XAOI22X1_3 BUFX4_148/Y INVX1_75/Y BUFX4_6/Y AND2X2_6/A gnd AOI22X1_3/Y vdd AOI22X1
XOAI21X1_171 INVX1_32/A NOR2X1_70/A OAI21X1_171/C gnd AOI21X1_60/A vdd OAI21X1
XOAI21X1_182 INVX1_87/Y BUFX4_71/Y OAI21X1_182/C gnd OAI21X1_299/B vdd OAI21X1
XOAI21X1_160 AOI21X1_51/Y OR2X2_3/Y AOI21X1_52/Y gnd AOI21X1_55/B vdd OAI21X1
XINVX1_224 INVX1_224/A gnd INVX1_224/Y vdd INVX1
XINVX1_202 INVX1_202/A gnd INVX1_202/Y vdd INVX1
XINVX1_246 INVX1_246/A gnd INVX1_246/Y vdd INVX1
XINVX1_257 INVX1_257/A gnd INVX1_257/Y vdd INVX1
XINVX1_235 operand_B[57] gnd INVX1_235/Y vdd INVX1
XINVX1_213 INVX1_213/A gnd INVX1_213/Y vdd INVX1
XINVX1_279 INVX1_279/A gnd INVX1_279/Y vdd INVX1
XOAI21X1_193 BUFX4_41/Y OAI21X1_375/B OAI21X1_193/C gnd MUX2X1_25/B vdd OAI21X1
XINVX1_268 BUFX2_4/A gnd INVX1_268/Y vdd INVX1
XNAND2X1_46 operand_A[27] INVX2_29/Y gnd NAND2X1_47/B vdd NAND2X1
XNAND2X1_57 operand_B[24] INVX2_32/Y gnd NAND2X1_58/B vdd NAND2X1
XNAND2X1_79 operand_B[9] INVX2_24/Y gnd NAND2X1_79/Y vdd NAND2X1
XNAND2X1_35 operand_B[13] INVX2_20/Y gnd NAND2X1_36/B vdd NAND2X1
XNAND2X1_68 MUX2X1_4/S INVX1_29/Y gnd NAND2X1_68/Y vdd NAND2X1
XNAND2X1_24 operand_A[4] BUFX4_162/Y gnd NAND2X1_26/A vdd NAND2X1
XNAND2X1_13 INVX1_5/Y INVX4_6/Y gnd AOI21X1_2/A vdd NAND2X1
XFILL_32_1_0 gnd vdd FILL